
---------- Begin Simulation Statistics ----------
simSeconds                                   0.008512                       # Number of seconds simulated (Second)
simTicks                                   8512108371                       # Number of ticks simulated (Tick)
finalTick                                  8512108371                       # Number of ticks from beginning of simulation (restored from checkpoints and never reset) (Tick)
simFreq                                  1000000000000                       # The number of ticks per simulated second ((Tick/Second))
hostSeconds                                     93.58                       # Real time elapsed on the host (Second)
hostTickRate                                 90959403                       # The number of ticks simulated per host second (ticks/s) ((Tick/Second))
hostMemory                                    2526932                       # Number of bytes of host memory used (Byte)
simInsts                                     16896977                       # Number of instructions simulated (Count)
simOps                                       34971726                       # Number of ops (including micro ops) simulated (Count)
hostInstRate                                   180559                       # Simulator instruction rate (inst/s) ((Count/Second))
hostOpRate                                     373703                       # Simulator op (including micro ops) rate (op/s) ((Count/Second))
board.cache_hierarchy.ruby_system.delayHistogram::bucket_size            8                       # delay histogram for all message (Unspecified)
board.cache_hierarchy.ruby_system.delayHistogram::max_bucket           79                       # delay histogram for all message (Unspecified)
board.cache_hierarchy.ruby_system.delayHistogram::samples      1051419                       # delay histogram for all message (Unspecified)
board.cache_hierarchy.ruby_system.delayHistogram::mean     0.549088                       # delay histogram for all message (Unspecified)
board.cache_hierarchy.ruby_system.delayHistogram::stdev     2.098827                       # delay histogram for all message (Unspecified)
board.cache_hierarchy.ruby_system.delayHistogram |      988157     93.98%     93.98% |       61914      5.89%     99.87% |        1330      0.13%    100.00% |           3      0.00%    100.00% |           9      0.00%    100.00% |           2      0.00%    100.00% |           4      0.00%    100.00% |           0      0.00%    100.00% |           0      0.00%    100.00% |           0      0.00%    100.00% # delay histogram for all message (Unspecified)
board.cache_hierarchy.ruby_system.delayHistogram::total      1051419                       # delay histogram for all message (Unspecified)
board.cache_hierarchy.ruby_system.m_outstandReqHistSeqr::bucket_size            2                       (Unspecified)
board.cache_hierarchy.ruby_system.m_outstandReqHistSeqr::max_bucket           19                       (Unspecified)
board.cache_hierarchy.ruby_system.m_outstandReqHistSeqr::samples     10395782                       (Unspecified)
board.cache_hierarchy.ruby_system.m_outstandReqHistSeqr::mean     1.910349                       (Unspecified)
board.cache_hierarchy.ruby_system.m_outstandReqHistSeqr::gmean     1.599633                       (Unspecified)
board.cache_hierarchy.ruby_system.m_outstandReqHistSeqr::stdev     1.580920                       (Unspecified)
board.cache_hierarchy.ruby_system.m_outstandReqHistSeqr |     5191246     49.94%     49.94% |     4555532     43.82%     93.76% |      444587      4.28%     98.03% |       66626      0.64%     98.67% |       32116      0.31%     98.98% |       15947      0.15%     99.14% |       37919      0.36%     99.50% |       37891      0.36%     99.87% |       13918      0.13%    100.00% |           0      0.00%    100.00% (Unspecified)
board.cache_hierarchy.ruby_system.m_outstandReqHistSeqr::total     10395782                       (Unspecified)
board.cache_hierarchy.ruby_system.m_latencyHistSeqr::bucket_size          256                       (Unspecified)
board.cache_hierarchy.ruby_system.m_latencyHistSeqr::max_bucket         2559                       (Unspecified)
board.cache_hierarchy.ruby_system.m_latencyHistSeqr::samples     10427469                       (Unspecified)
board.cache_hierarchy.ruby_system.m_latencyHistSeqr::mean     2.919278                       (Unspecified)
board.cache_hierarchy.ruby_system.m_latencyHistSeqr::gmean     1.072487                       (Unspecified)
board.cache_hierarchy.ruby_system.m_latencyHistSeqr::stdev    22.014569                       (Unspecified)
board.cache_hierarchy.ruby_system.m_latencyHistSeqr |    10422784     99.96%     99.96% |        3255      0.03%     99.99% |         163      0.00%     99.99% |         227      0.00%     99.99% |         978      0.01%    100.00% |          55      0.00%    100.00% |           7      0.00%    100.00% |           0      0.00%    100.00% |           0      0.00%    100.00% |           0      0.00%    100.00% (Unspecified)
board.cache_hierarchy.ruby_system.m_latencyHistSeqr::total     10427469                       (Unspecified)
board.cache_hierarchy.ruby_system.m_hitLatencyHistSeqr::bucket_size           16                       (Unspecified)
board.cache_hierarchy.ruby_system.m_hitLatencyHistSeqr::max_bucket          159                       (Unspecified)
board.cache_hierarchy.ruby_system.m_hitLatencyHistSeqr::samples     10256034                       (Unspecified)
board.cache_hierarchy.ruby_system.m_hitLatencyHistSeqr::mean     1.003205                       (Unspecified)
board.cache_hierarchy.ruby_system.m_hitLatencyHistSeqr::gmean     1.002207                       (Unspecified)
board.cache_hierarchy.ruby_system.m_hitLatencyHistSeqr::stdev     0.080623                       (Unspecified)
board.cache_hierarchy.ruby_system.m_hitLatencyHistSeqr |    10256032    100.00%    100.00% |           0      0.00%    100.00% |           0      0.00%    100.00% |           0      0.00%    100.00% |           0      0.00%    100.00% |           0      0.00%    100.00% |           0      0.00%    100.00% |           1      0.00%    100.00% |           1      0.00%    100.00% |           0      0.00%    100.00% (Unspecified)
board.cache_hierarchy.ruby_system.m_hitLatencyHistSeqr::total     10256034                       (Unspecified)
board.cache_hierarchy.ruby_system.m_missLatencyHistSeqr::bucket_size          256                       (Unspecified)
board.cache_hierarchy.ruby_system.m_missLatencyHistSeqr::max_bucket         2559                       (Unspecified)
board.cache_hierarchy.ruby_system.m_missLatencyHistSeqr::samples       171435                       (Unspecified)
board.cache_hierarchy.ruby_system.m_missLatencyHistSeqr::mean   117.547619                       (Unspecified)
board.cache_hierarchy.ruby_system.m_missLatencyHistSeqr::gmean    61.843957                       (Unspecified)
board.cache_hierarchy.ruby_system.m_missLatencyHistSeqr::stdev   126.958774                       (Unspecified)
board.cache_hierarchy.ruby_system.m_missLatencyHistSeqr |      166750     97.27%     97.27% |        3255      1.90%     99.17% |         163      0.10%     99.26% |         227      0.13%     99.39% |         978      0.57%     99.96% |          55      0.03%    100.00% |           7      0.00%    100.00% |           0      0.00%    100.00% |           0      0.00%    100.00% |           0      0.00%    100.00% (Unspecified)
board.cache_hierarchy.ruby_system.m_missLatencyHistSeqr::total       171435                       (Unspecified)
board.cache_hierarchy.ruby_system.delayVCHist.vnet_0::bucket_size            8                       # delay histogram for vnet_0 (Unspecified)
board.cache_hierarchy.ruby_system.delayVCHist.vnet_0::max_bucket           79                       # delay histogram for vnet_0 (Unspecified)
board.cache_hierarchy.ruby_system.delayVCHist.vnet_0::samples       510603                       # delay histogram for vnet_0 (Unspecified)
board.cache_hierarchy.ruby_system.delayVCHist.vnet_0::mean     1.050977                       # delay histogram for vnet_0 (Unspecified)
board.cache_hierarchy.ruby_system.delayVCHist.vnet_0::stdev     2.836152                       # delay histogram for vnet_0 (Unspecified)
board.cache_hierarchy.ruby_system.delayVCHist.vnet_0 |      450128     88.16%     88.16% |       59145     11.58%     99.74% |        1313      0.26%    100.00% |           2      0.00%    100.00% |           9      0.00%    100.00% |           2      0.00%    100.00% |           4      0.00%    100.00% |           0      0.00%    100.00% |           0      0.00%    100.00% |           0      0.00%    100.00% # delay histogram for vnet_0 (Unspecified)
board.cache_hierarchy.ruby_system.delayVCHist.vnet_0::total       510603                       # delay histogram for vnet_0 (Unspecified)
board.cache_hierarchy.ruby_system.delayVCHist.vnet_1::bucket_size            4                       # delay histogram for vnet_1 (Unspecified)
board.cache_hierarchy.ruby_system.delayVCHist.vnet_1::max_bucket           39                       # delay histogram for vnet_1 (Unspecified)
board.cache_hierarchy.ruby_system.delayVCHist.vnet_1::samples       539119                       # delay histogram for vnet_1 (Unspecified)
board.cache_hierarchy.ruby_system.delayVCHist.vnet_1::mean     0.075475                       # delay histogram for vnet_1 (Unspecified)
board.cache_hierarchy.ruby_system.delayVCHist.vnet_1::stdev     0.713372                       # delay histogram for vnet_1 (Unspecified)
board.cache_hierarchy.ruby_system.delayVCHist.vnet_1 |      533132     98.89%     98.89% |        3200      0.59%     99.48% |        2740      0.51%     99.99% |          29      0.01%    100.00% |          16      0.00%    100.00% |           1      0.00%    100.00% |           1      0.00%    100.00% |           0      0.00%    100.00% |           0      0.00%    100.00% |           0      0.00%    100.00% # delay histogram for vnet_1 (Unspecified)
board.cache_hierarchy.ruby_system.delayVCHist.vnet_1::total       539119                       # delay histogram for vnet_1 (Unspecified)
board.cache_hierarchy.ruby_system.delayVCHist.vnet_2::bucket_size            1                       # delay histogram for vnet_2 (Unspecified)
board.cache_hierarchy.ruby_system.delayVCHist.vnet_2::max_bucket            9                       # delay histogram for vnet_2 (Unspecified)
board.cache_hierarchy.ruby_system.delayVCHist.vnet_2::samples         1697                       # delay histogram for vnet_2 (Unspecified)
board.cache_hierarchy.ruby_system.delayVCHist.vnet_2 |        1697    100.00%    100.00% |           0      0.00%    100.00% |           0      0.00%    100.00% |           0      0.00%    100.00% |           0      0.00%    100.00% |           0      0.00%    100.00% |           0      0.00%    100.00% |           0      0.00%    100.00% |           0      0.00%    100.00% |           0      0.00%    100.00% # delay histogram for vnet_2 (Unspecified)
board.cache_hierarchy.ruby_system.delayVCHist.vnet_2::total         1697                       # delay histogram for vnet_2 (Unspecified)
board.cache_hierarchy.ruby_system.Directory_Controller.Fetch       100374      0.00%      0.00% (Unspecified)
board.cache_hierarchy.ruby_system.Directory_Controller.Data        40816      0.00%      0.00% (Unspecified)
board.cache_hierarchy.ruby_system.Directory_Controller.Memory_Data       100374      0.00%      0.00% (Unspecified)
board.cache_hierarchy.ruby_system.Directory_Controller.Memory_Ack        40816      0.00%      0.00% (Unspecified)
board.cache_hierarchy.ruby_system.Directory_Controller.CleanReplacement        55462      0.00%      0.00% (Unspecified)
board.cache_hierarchy.ruby_system.Directory_Controller.I.Fetch       100374      0.00%      0.00% (Unspecified)
board.cache_hierarchy.ruby_system.Directory_Controller.M.Data        40816      0.00%      0.00% (Unspecified)
board.cache_hierarchy.ruby_system.Directory_Controller.M.CleanReplacement        55462      0.00%      0.00% (Unspecified)
board.cache_hierarchy.ruby_system.Directory_Controller.IM.Memory_Data       100374      0.00%      0.00% (Unspecified)
board.cache_hierarchy.ruby_system.Directory_Controller.MI.Memory_Ack        40816      0.00%      0.00% (Unspecified)
board.cache_hierarchy.ruby_system.L1Cache_Controller.Load      4123550      0.00%      0.00% (Unspecified)
board.cache_hierarchy.ruby_system.L1Cache_Controller.Ifetch      3752914      0.00%      0.00% (Unspecified)
board.cache_hierarchy.ruby_system.L1Cache_Controller.Store      2551020      0.00%      0.00% (Unspecified)
board.cache_hierarchy.ruby_system.L1Cache_Controller.Inv         1697      0.00%      0.00% (Unspecified)
board.cache_hierarchy.ruby_system.L1Cache_Controller.L1_Replacement       170106      0.00%      0.00% (Unspecified)
board.cache_hierarchy.ruby_system.L1Cache_Controller.Data_Exclusive       143498      0.00%      0.00% (Unspecified)
board.cache_hierarchy.ruby_system.L1Cache_Controller.Data_all_Acks        27934      0.00%      0.00% (Unspecified)
board.cache_hierarchy.ruby_system.L1Cache_Controller.Ack_all            3      0.00%      0.00% (Unspecified)
board.cache_hierarchy.ruby_system.L1Cache_Controller.WB_Ack       169335      0.00%      0.00% (Unspecified)
board.cache_hierarchy.ruby_system.L1Cache_Controller.NP.Load       143333      0.00%      0.00% (Unspecified)
board.cache_hierarchy.ruby_system.L1Cache_Controller.NP.Ifetch          979      0.00%      0.00% (Unspecified)
board.cache_hierarchy.ruby_system.L1Cache_Controller.NP.Store        26306      0.00%      0.00% (Unspecified)
board.cache_hierarchy.ruby_system.L1Cache_Controller.NP.Inv          506      0.00%      0.00% (Unspecified)
board.cache_hierarchy.ruby_system.L1Cache_Controller.I.Load          169      0.00%      0.00% (Unspecified)
board.cache_hierarchy.ruby_system.L1Cache_Controller.I.Ifetch          621      0.00%      0.00% (Unspecified)
board.cache_hierarchy.ruby_system.L1Cache_Controller.I.Store           25      0.00%      0.00% (Unspecified)
board.cache_hierarchy.ruby_system.L1Cache_Controller.I.L1_Replacement          219      0.00%      0.00% (Unspecified)
board.cache_hierarchy.ruby_system.L1Cache_Controller.S.Load           21      0.00%      0.00% (Unspecified)
board.cache_hierarchy.ruby_system.L1Cache_Controller.S.Ifetch      3751310      0.00%      0.00% (Unspecified)
board.cache_hierarchy.ruby_system.L1Cache_Controller.S.Store            3      0.00%      0.00% (Unspecified)
board.cache_hierarchy.ruby_system.L1Cache_Controller.S.Inv          923      0.00%      0.00% (Unspecified)
board.cache_hierarchy.ruby_system.L1Cache_Controller.S.L1_Replacement          552      0.00%      0.00% (Unspecified)
board.cache_hierarchy.ruby_system.L1Cache_Controller.E.Load      1858734      0.00%      0.00% (Unspecified)
board.cache_hierarchy.ruby_system.L1Cache_Controller.E.Store        32168      0.00%      0.00% (Unspecified)
board.cache_hierarchy.ruby_system.L1Cache_Controller.E.Inv          167      0.00%      0.00% (Unspecified)
board.cache_hierarchy.ruby_system.L1Cache_Controller.E.L1_Replacement       110970      0.00%      0.00% (Unspecified)
board.cache_hierarchy.ruby_system.L1Cache_Controller.M.Load      2121291      0.00%      0.00% (Unspecified)
board.cache_hierarchy.ruby_system.L1Cache_Controller.M.Store      2492510      0.00%      0.00% (Unspecified)
board.cache_hierarchy.ruby_system.L1Cache_Controller.M.Inv          101      0.00%      0.00% (Unspecified)
board.cache_hierarchy.ruby_system.L1Cache_Controller.M.L1_Replacement        58365      0.00%      0.00% (Unspecified)
board.cache_hierarchy.ruby_system.L1Cache_Controller.IS.Data_Exclusive       143498      0.00%      0.00% (Unspecified)
board.cache_hierarchy.ruby_system.L1Cache_Controller.IS.Data_all_Acks         1603      0.00%      0.00% (Unspecified)
board.cache_hierarchy.ruby_system.L1Cache_Controller.IM.Data_all_Acks        26331      0.00%      0.00% (Unspecified)
board.cache_hierarchy.ruby_system.L1Cache_Controller.SM.Ack_all            3      0.00%      0.00% (Unspecified)
board.cache_hierarchy.ruby_system.L1Cache_Controller.M_I.Load            2      0.00%      0.00% (Unspecified)
board.cache_hierarchy.ruby_system.L1Cache_Controller.M_I.Ifetch            4      0.00%      0.00% (Unspecified)
board.cache_hierarchy.ruby_system.L1Cache_Controller.M_I.Store            8      0.00%      0.00% (Unspecified)
board.cache_hierarchy.ruby_system.L1Cache_Controller.M_I.WB_Ack       169335      0.00%      0.00% (Unspecified)
board.cache_hierarchy.ruby_system.L2Cache_Controller.L1_GET_INSTR         1655      0.00%      0.00% (Unspecified)
board.cache_hierarchy.ruby_system.L2Cache_Controller.L1_GETS       143527      0.00%      0.00% (Unspecified)
board.cache_hierarchy.ruby_system.L2Cache_Controller.L1_GETX        26341      0.00%      0.00% (Unspecified)
board.cache_hierarchy.ruby_system.L2Cache_Controller.L1_UPGRADE            3      0.00%      0.00% (Unspecified)
board.cache_hierarchy.ruby_system.L2Cache_Controller.L1_PUTX       169335      0.00%      0.00% (Unspecified)
board.cache_hierarchy.ruby_system.L2Cache_Controller.L2_Replacement        40732      0.00%      0.00% (Unspecified)
board.cache_hierarchy.ruby_system.L2Cache_Controller.L2_Replacement_clean        55547      0.00%      0.00% (Unspecified)
board.cache_hierarchy.ruby_system.L2Cache_Controller.Mem_Data       100374      0.00%      0.00% (Unspecified)
board.cache_hierarchy.ruby_system.L2Cache_Controller.Mem_Ack        96278      0.00%      0.00% (Unspecified)
board.cache_hierarchy.ruby_system.L2Cache_Controller.WB_Data          101      0.00%      0.00% (Unspecified)
board.cache_hierarchy.ruby_system.L2Cache_Controller.Ack_all         1596      0.00%      0.00% (Unspecified)
board.cache_hierarchy.ruby_system.L2Cache_Controller.Exclusive_Unblock       169832      0.00%      0.00% (Unspecified)
board.cache_hierarchy.ruby_system.L2Cache_Controller.NP.L1_GET_INSTR         1556      0.00%      0.00% (Unspecified)
board.cache_hierarchy.ruby_system.L2Cache_Controller.NP.L1_GETS        82313      0.00%      0.00% (Unspecified)
board.cache_hierarchy.ruby_system.L2Cache_Controller.NP.L1_GETX        16506      0.00%      0.00% (Unspecified)
board.cache_hierarchy.ruby_system.L2Cache_Controller.SS.L1_GET_INSTR           40      0.00%      0.00% (Unspecified)
board.cache_hierarchy.ruby_system.L2Cache_Controller.SS.L1_GETS            4      0.00%      0.00% (Unspecified)
board.cache_hierarchy.ruby_system.L2Cache_Controller.SS.L1_GETX            1      0.00%      0.00% (Unspecified)
board.cache_hierarchy.ruby_system.L2Cache_Controller.SS.L1_UPGRADE            3      0.00%      0.00% (Unspecified)
board.cache_hierarchy.ruby_system.L2Cache_Controller.SS.L2_Replacement_clean         1429      0.00%      0.00% (Unspecified)
board.cache_hierarchy.ruby_system.L2Cache_Controller.M.L1_GET_INSTR            4      0.00%      0.00% (Unspecified)
board.cache_hierarchy.ruby_system.L2Cache_Controller.M.L1_GETS        61185      0.00%      0.00% (Unspecified)
board.cache_hierarchy.ruby_system.L2Cache_Controller.M.L1_GETX         9824      0.00%      0.00% (Unspecified)
board.cache_hierarchy.ruby_system.L2Cache_Controller.M.L2_Replacement        40682      0.00%      0.00% (Unspecified)
board.cache_hierarchy.ruby_system.L2Cache_Controller.M.L2_Replacement_clean        53900      0.00%      0.00% (Unspecified)
board.cache_hierarchy.ruby_system.L2Cache_Controller.MT.L1_PUTX       169335      0.00%      0.00% (Unspecified)
board.cache_hierarchy.ruby_system.L2Cache_Controller.MT.L2_Replacement           50      0.00%      0.00% (Unspecified)
board.cache_hierarchy.ruby_system.L2Cache_Controller.MT.L2_Replacement_clean          218      0.00%      0.00% (Unspecified)
board.cache_hierarchy.ruby_system.L2Cache_Controller.M_I.L1_GET_INSTR           55      0.00%      0.00% (Unspecified)
board.cache_hierarchy.ruby_system.L2Cache_Controller.M_I.L1_GETS           25      0.00%      0.00% (Unspecified)
board.cache_hierarchy.ruby_system.L2Cache_Controller.M_I.L1_GETX           10      0.00%      0.00% (Unspecified)
board.cache_hierarchy.ruby_system.L2Cache_Controller.M_I.Mem_Ack        96278      0.00%      0.00% (Unspecified)
board.cache_hierarchy.ruby_system.L2Cache_Controller.MT_I.WB_Data           17      0.00%      0.00% (Unspecified)
board.cache_hierarchy.ruby_system.L2Cache_Controller.MT_I.Ack_all           33      0.00%      0.00% (Unspecified)
board.cache_hierarchy.ruby_system.L2Cache_Controller.MCT_I.WB_Data           84      0.00%      0.00% (Unspecified)
board.cache_hierarchy.ruby_system.L2Cache_Controller.MCT_I.Ack_all          134      0.00%      0.00% (Unspecified)
board.cache_hierarchy.ruby_system.L2Cache_Controller.I_I.Ack_all         1429      0.00%      0.00% (Unspecified)
board.cache_hierarchy.ruby_system.L2Cache_Controller.ISS.Mem_Data        82313      0.00%      0.00% (Unspecified)
board.cache_hierarchy.ruby_system.L2Cache_Controller.IS.Mem_Data         1555      0.00%      0.00% (Unspecified)
board.cache_hierarchy.ruby_system.L2Cache_Controller.IM.Mem_Data        16506      0.00%      0.00% (Unspecified)
board.cache_hierarchy.ruby_system.L2Cache_Controller.SS_MB.Exclusive_Unblock            4      0.00%      0.00% (Unspecified)
board.cache_hierarchy.ruby_system.L2Cache_Controller.MT_MB.Exclusive_Unblock       169828      0.00%      0.00% (Unspecified)
board.cache_hierarchy.ruby_system.RequestType.LD.latency_hist_seqr::bucket_size          256                       (Unspecified)
board.cache_hierarchy.ruby_system.RequestType.LD.latency_hist_seqr::max_bucket         2559                       (Unspecified)
board.cache_hierarchy.ruby_system.RequestType.LD.latency_hist_seqr::samples      4123548                       (Unspecified)
board.cache_hierarchy.ruby_system.RequestType.LD.latency_hist_seqr::mean     5.036608                       (Unspecified)
board.cache_hierarchy.ruby_system.RequestType.LD.latency_hist_seqr::gmean     1.153443                       (Unspecified)
board.cache_hierarchy.ruby_system.RequestType.LD.latency_hist_seqr::stdev    31.760309                       (Unspecified)
board.cache_hierarchy.ruby_system.RequestType.LD.latency_hist_seqr |     4119850     99.91%     99.91% |        2589      0.06%     99.97% |         108      0.00%     99.98% |         152      0.00%     99.98% |         795      0.02%    100.00% |          48      0.00%    100.00% |           6      0.00%    100.00% |           0      0.00%    100.00% |           0      0.00%    100.00% |           0      0.00%    100.00% (Unspecified)
board.cache_hierarchy.ruby_system.RequestType.LD.latency_hist_seqr::total      4123548                       (Unspecified)
board.cache_hierarchy.ruby_system.RequestType.LD.hit_latency_hist_seqr::bucket_size            1                       (Unspecified)
board.cache_hierarchy.ruby_system.RequestType.LD.hit_latency_hist_seqr::max_bucket            9                       (Unspecified)
board.cache_hierarchy.ruby_system.RequestType.LD.hit_latency_hist_seqr::samples      3980046                       (Unspecified)
board.cache_hierarchy.ruby_system.RequestType.LD.hit_latency_hist_seqr::mean     1.000066                       (Unspecified)
board.cache_hierarchy.ruby_system.RequestType.LD.hit_latency_hist_seqr::gmean     1.000046                       (Unspecified)
board.cache_hierarchy.ruby_system.RequestType.LD.hit_latency_hist_seqr::stdev     0.008129                       (Unspecified)
board.cache_hierarchy.ruby_system.RequestType.LD.hit_latency_hist_seqr |           0      0.00%      0.00% |     3979783     99.99%     99.99% |         263      0.01%    100.00% |           0      0.00%    100.00% |           0      0.00%    100.00% |           0      0.00%    100.00% |           0      0.00%    100.00% |           0      0.00%    100.00% |           0      0.00%    100.00% |           0      0.00%    100.00% (Unspecified)
board.cache_hierarchy.ruby_system.RequestType.LD.hit_latency_hist_seqr::total      3980046                       (Unspecified)
board.cache_hierarchy.ruby_system.RequestType.LD.miss_latency_hist_seqr::bucket_size          256                       (Unspecified)
board.cache_hierarchy.ruby_system.RequestType.LD.miss_latency_hist_seqr::max_bucket         2559                       (Unspecified)
board.cache_hierarchy.ruby_system.RequestType.LD.miss_latency_hist_seqr::samples       143502                       (Unspecified)
board.cache_hierarchy.ruby_system.RequestType.LD.miss_latency_hist_seqr::mean   116.990592                       (Unspecified)
board.cache_hierarchy.ruby_system.RequestType.LD.miss_latency_hist_seqr::gmean    60.383573                       (Unspecified)
board.cache_hierarchy.ruby_system.RequestType.LD.miss_latency_hist_seqr::stdev   126.491567                       (Unspecified)
board.cache_hierarchy.ruby_system.RequestType.LD.miss_latency_hist_seqr |      139804     97.42%     97.42% |        2589      1.80%     99.23% |         108      0.08%     99.30% |         152      0.11%     99.41% |         795      0.55%     99.96% |          48      0.03%    100.00% |           6      0.00%    100.00% |           0      0.00%    100.00% |           0      0.00%    100.00% |           0      0.00%    100.00% (Unspecified)
board.cache_hierarchy.ruby_system.RequestType.LD.miss_latency_hist_seqr::total       143502                       (Unspecified)
board.cache_hierarchy.ruby_system.RequestType.ST.latency_hist_seqr::bucket_size          256                       (Unspecified)
board.cache_hierarchy.ruby_system.RequestType.ST.latency_hist_seqr::max_bucket         2559                       (Unspecified)
board.cache_hierarchy.ruby_system.RequestType.ST.latency_hist_seqr::samples      2495772                       (Unspecified)
board.cache_hierarchy.ruby_system.RequestType.ST.latency_hist_seqr::mean     2.089415                       (Unspecified)
board.cache_hierarchy.ruby_system.RequestType.ST.latency_hist_seqr::gmean     1.050562                       (Unspecified)
board.cache_hierarchy.ruby_system.RequestType.ST.latency_hist_seqr::stdev    16.736571                       (Unspecified)
board.cache_hierarchy.ruby_system.RequestType.ST.latency_hist_seqr |     2494974     99.97%     99.97% |         512      0.02%     99.99% |          52      0.00%     99.99% |          72      0.00%     99.99% |         154      0.01%    100.00% |           7      0.00%    100.00% |           1      0.00%    100.00% |           0      0.00%    100.00% |           0      0.00%    100.00% |           0      0.00%    100.00% (Unspecified)
board.cache_hierarchy.ruby_system.RequestType.ST.latency_hist_seqr::total      2495772                       (Unspecified)
board.cache_hierarchy.ruby_system.RequestType.ST.hit_latency_hist_seqr::bucket_size           16                       (Unspecified)
board.cache_hierarchy.ruby_system.RequestType.ST.hit_latency_hist_seqr::max_bucket          159                       (Unspecified)
board.cache_hierarchy.ruby_system.RequestType.ST.hit_latency_hist_seqr::samples      2471320                       (Unspecified)
board.cache_hierarchy.ruby_system.RequestType.ST.hit_latency_hist_seqr::mean     1.013163                       (Unspecified)
board.cache_hierarchy.ruby_system.RequestType.ST.hit_latency_hist_seqr::gmean     1.009095                       (Unspecified)
board.cache_hierarchy.ruby_system.RequestType.ST.hit_latency_hist_seqr::stdev     0.163419                       (Unspecified)
board.cache_hierarchy.ruby_system.RequestType.ST.hit_latency_hist_seqr |     2471318    100.00%    100.00% |           0      0.00%    100.00% |           0      0.00%    100.00% |           0      0.00%    100.00% |           0      0.00%    100.00% |           0      0.00%    100.00% |           0      0.00%    100.00% |           1      0.00%    100.00% |           1      0.00%    100.00% |           0      0.00%    100.00% (Unspecified)
board.cache_hierarchy.ruby_system.RequestType.ST.hit_latency_hist_seqr::total      2471320                       (Unspecified)
board.cache_hierarchy.ruby_system.RequestType.ST.miss_latency_hist_seqr::bucket_size          256                       (Unspecified)
board.cache_hierarchy.ruby_system.RequestType.ST.miss_latency_hist_seqr::max_bucket         2559                       (Unspecified)
board.cache_hierarchy.ruby_system.RequestType.ST.miss_latency_hist_seqr::samples        24452                       (Unspecified)
board.cache_hierarchy.ruby_system.RequestType.ST.miss_latency_hist_seqr::mean   110.864224                       (Unspecified)
board.cache_hierarchy.ruby_system.RequestType.ST.miss_latency_hist_seqr::gmean    61.527761                       (Unspecified)
board.cache_hierarchy.ruby_system.RequestType.ST.miss_latency_hist_seqr::stdev   128.994408                       (Unspecified)
board.cache_hierarchy.ruby_system.RequestType.ST.miss_latency_hist_seqr |       23654     96.74%     96.74% |         512      2.09%     98.83% |          52      0.21%     99.04% |          72      0.29%     99.34% |         154      0.63%     99.97% |           7      0.03%    100.00% |           1      0.00%    100.00% |           0      0.00%    100.00% |           0      0.00%    100.00% |           0      0.00%    100.00% (Unspecified)
board.cache_hierarchy.ruby_system.RequestType.ST.miss_latency_hist_seqr::total        24452                       (Unspecified)
board.cache_hierarchy.ruby_system.RequestType.IFETCH.latency_hist_seqr::bucket_size          128                       (Unspecified)
board.cache_hierarchy.ruby_system.RequestType.IFETCH.latency_hist_seqr::max_bucket         1279                       (Unspecified)
board.cache_hierarchy.ruby_system.RequestType.IFETCH.latency_hist_seqr::samples      3752909                       (Unspecified)
board.cache_hierarchy.ruby_system.RequestType.IFETCH.latency_hist_seqr::mean     1.073364                       (Unspecified)
board.cache_hierarchy.ruby_system.RequestType.IFETCH.latency_hist_seqr::gmean     1.002157                       (Unspecified)
board.cache_hierarchy.ruby_system.RequestType.IFETCH.latency_hist_seqr::stdev     4.080127                       (Unspecified)
board.cache_hierarchy.ruby_system.RequestType.IFETCH.latency_hist_seqr |     3751354     99.96%     99.96% |        1496      0.04%    100.00% |          35      0.00%    100.00% |          10      0.00%    100.00% |           1      0.00%    100.00% |           1      0.00%    100.00% |           3      0.00%    100.00% |           0      0.00%    100.00% |           2      0.00%    100.00% |           7      0.00%    100.00% (Unspecified)
board.cache_hierarchy.ruby_system.RequestType.IFETCH.latency_hist_seqr::total      3752909                       (Unspecified)
board.cache_hierarchy.ruby_system.RequestType.IFETCH.hit_latency_hist_seqr::bucket_size            1                       (Unspecified)
board.cache_hierarchy.ruby_system.RequestType.IFETCH.hit_latency_hist_seqr::max_bucket            9                       (Unspecified)
board.cache_hierarchy.ruby_system.RequestType.IFETCH.hit_latency_hist_seqr::samples      3751310                       (Unspecified)
board.cache_hierarchy.ruby_system.RequestType.IFETCH.hit_latency_hist_seqr::mean            1                       (Unspecified)
board.cache_hierarchy.ruby_system.RequestType.IFETCH.hit_latency_hist_seqr::gmean            1                       (Unspecified)
board.cache_hierarchy.ruby_system.RequestType.IFETCH.hit_latency_hist_seqr |           0      0.00%      0.00% |     3751310    100.00%    100.00% |           0      0.00%    100.00% |           0      0.00%    100.00% |           0      0.00%    100.00% |           0      0.00%    100.00% |           0      0.00%    100.00% |           0      0.00%    100.00% |           0      0.00%    100.00% |           0      0.00%    100.00% (Unspecified)
board.cache_hierarchy.ruby_system.RequestType.IFETCH.hit_latency_hist_seqr::total      3751310                       (Unspecified)
board.cache_hierarchy.ruby_system.RequestType.IFETCH.miss_latency_hist_seqr::bucket_size          128                       (Unspecified)
board.cache_hierarchy.ruby_system.RequestType.IFETCH.miss_latency_hist_seqr::max_bucket         1279                       (Unspecified)
board.cache_hierarchy.ruby_system.RequestType.IFETCH.miss_latency_hist_seqr::samples         1599                       (Unspecified)
board.cache_hierarchy.ruby_system.RequestType.IFETCH.miss_latency_hist_seqr::mean   173.188243                       (Unspecified)
board.cache_hierarchy.ruby_system.RequestType.IFETCH.miss_latency_hist_seqr::gmean   157.016173                       (Unspecified)
board.cache_hierarchy.ruby_system.RequestType.IFETCH.miss_latency_hist_seqr::stdev    97.169189                       (Unspecified)
board.cache_hierarchy.ruby_system.RequestType.IFETCH.miss_latency_hist_seqr |          44      2.75%      2.75% |        1496     93.56%     96.31% |          35      2.19%     98.50% |          10      0.63%     99.12% |           1      0.06%     99.19% |           1      0.06%     99.25% |           3      0.19%     99.44% |           0      0.00%     99.44% |           2      0.13%     99.56% |           7      0.44%    100.00% (Unspecified)
board.cache_hierarchy.ruby_system.RequestType.IFETCH.miss_latency_hist_seqr::total         1599                       (Unspecified)
board.cache_hierarchy.ruby_system.RequestType.RMW_Read.latency_hist_seqr::bucket_size          128                       (Unspecified)
board.cache_hierarchy.ruby_system.RequestType.RMW_Read.latency_hist_seqr::max_bucket         1279                       (Unspecified)
board.cache_hierarchy.ruby_system.RequestType.RMW_Read.latency_hist_seqr::samples        55180                       (Unspecified)
board.cache_hierarchy.ruby_system.RequestType.RMW_Read.latency_hist_seqr::mean     7.762722                       (Unspecified)
board.cache_hierarchy.ruby_system.RequestType.RMW_Read.latency_hist_seqr::gmean     1.195716                       (Unspecified)
board.cache_hierarchy.ruby_system.RequestType.RMW_Read.latency_hist_seqr::stdev    42.169878                       (Unspecified)
board.cache_hierarchy.ruby_system.RequestType.RMW_Read.latency_hist_seqr |       53302     96.60%     96.60% |        1748      3.17%     99.76% |          42      0.08%     99.84% |          67      0.12%     99.96% |           1      0.00%     99.96% |           0      0.00%     99.96% |           0      0.00%     99.96% |           0      0.00%     99.96% |           8      0.01%     99.98% |          12      0.02%    100.00% (Unspecified)
board.cache_hierarchy.ruby_system.RequestType.RMW_Read.latency_hist_seqr::total        55180                       (Unspecified)
board.cache_hierarchy.ruby_system.RequestType.RMW_Read.hit_latency_hist_seqr::bucket_size            1                       (Unspecified)
board.cache_hierarchy.ruby_system.RequestType.RMW_Read.hit_latency_hist_seqr::max_bucket            9                       (Unspecified)
board.cache_hierarchy.ruby_system.RequestType.RMW_Read.hit_latency_hist_seqr::samples        53302                       (Unspecified)
board.cache_hierarchy.ruby_system.RequestType.RMW_Read.hit_latency_hist_seqr::mean     1.001520                       (Unspecified)
board.cache_hierarchy.ruby_system.RequestType.RMW_Read.hit_latency_hist_seqr::gmean     1.001054                       (Unspecified)
board.cache_hierarchy.ruby_system.RequestType.RMW_Read.hit_latency_hist_seqr::stdev     0.038953                       (Unspecified)
board.cache_hierarchy.ruby_system.RequestType.RMW_Read.hit_latency_hist_seqr |           0      0.00%      0.00% |       53221     99.85%     99.85% |          81      0.15%    100.00% |           0      0.00%    100.00% |           0      0.00%    100.00% |           0      0.00%    100.00% |           0      0.00%    100.00% |           0      0.00%    100.00% |           0      0.00%    100.00% |           0      0.00%    100.00% (Unspecified)
board.cache_hierarchy.ruby_system.RequestType.RMW_Read.hit_latency_hist_seqr::total        53302                       (Unspecified)
board.cache_hierarchy.ruby_system.RequestType.RMW_Read.miss_latency_hist_seqr::bucket_size          128                       (Unspecified)
board.cache_hierarchy.ruby_system.RequestType.RMW_Read.miss_latency_hist_seqr::max_bucket         1279                       (Unspecified)
board.cache_hierarchy.ruby_system.RequestType.RMW_Read.miss_latency_hist_seqr::samples         1878                       (Unspecified)
board.cache_hierarchy.ruby_system.RequestType.RMW_Read.miss_latency_hist_seqr::mean   199.661342                       (Unspecified)
board.cache_hierarchy.ruby_system.RequestType.RMW_Read.miss_latency_hist_seqr::gmean   185.313045                       (Unspecified)
board.cache_hierarchy.ruby_system.RequestType.RMW_Read.miss_latency_hist_seqr::stdev   118.888738                       (Unspecified)
board.cache_hierarchy.ruby_system.RequestType.RMW_Read.miss_latency_hist_seqr |           0      0.00%      0.00% |        1748     93.08%     93.08% |          42      2.24%     95.31% |          67      3.57%     98.88% |           1      0.05%     98.94% |           0      0.00%     98.94% |           0      0.00%     98.94% |           0      0.00%     98.94% |           8      0.43%     99.36% |          12      0.64%    100.00% (Unspecified)
board.cache_hierarchy.ruby_system.RequestType.RMW_Read.miss_latency_hist_seqr::total         1878                       (Unspecified)
board.cache_hierarchy.ruby_system.RequestType.Locked_RMW_Read.latency_hist_seqr::bucket_size           32                       (Unspecified)
board.cache_hierarchy.ruby_system.RequestType.Locked_RMW_Read.latency_hist_seqr::max_bucket          319                       (Unspecified)
board.cache_hierarchy.ruby_system.RequestType.Locked_RMW_Read.latency_hist_seqr::samples           30                       (Unspecified)
board.cache_hierarchy.ruby_system.RequestType.Locked_RMW_Read.latency_hist_seqr::mean    22.466667                       (Unspecified)
board.cache_hierarchy.ruby_system.RequestType.Locked_RMW_Read.latency_hist_seqr::gmean     1.968937                       (Unspecified)
board.cache_hierarchy.ruby_system.RequestType.Locked_RMW_Read.latency_hist_seqr::stdev    56.070604                       (Unspecified)
board.cache_hierarchy.ruby_system.RequestType.Locked_RMW_Read.latency_hist_seqr |          26     86.67%     86.67% |           0      0.00%     86.67% |           0      0.00%     86.67% |           0      0.00%     86.67% |           2      6.67%     93.33% |           2      6.67%    100.00% |           0      0.00%    100.00% |           0      0.00%    100.00% |           0      0.00%    100.00% |           0      0.00%    100.00% (Unspecified)
board.cache_hierarchy.ruby_system.RequestType.Locked_RMW_Read.latency_hist_seqr::total           30                       (Unspecified)
board.cache_hierarchy.ruby_system.RequestType.Locked_RMW_Read.hit_latency_hist_seqr::bucket_size            1                       (Unspecified)
board.cache_hierarchy.ruby_system.RequestType.Locked_RMW_Read.hit_latency_hist_seqr::max_bucket            9                       (Unspecified)
board.cache_hierarchy.ruby_system.RequestType.Locked_RMW_Read.hit_latency_hist_seqr::samples           26                       (Unspecified)
board.cache_hierarchy.ruby_system.RequestType.Locked_RMW_Read.hit_latency_hist_seqr::mean            1                       (Unspecified)
board.cache_hierarchy.ruby_system.RequestType.Locked_RMW_Read.hit_latency_hist_seqr::gmean            1                       (Unspecified)
board.cache_hierarchy.ruby_system.RequestType.Locked_RMW_Read.hit_latency_hist_seqr |           0      0.00%      0.00% |          26    100.00%    100.00% |           0      0.00%    100.00% |           0      0.00%    100.00% |           0      0.00%    100.00% |           0      0.00%    100.00% |           0      0.00%    100.00% |           0      0.00%    100.00% |           0      0.00%    100.00% |           0      0.00%    100.00% (Unspecified)
board.cache_hierarchy.ruby_system.RequestType.Locked_RMW_Read.hit_latency_hist_seqr::total           26                       (Unspecified)
board.cache_hierarchy.ruby_system.RequestType.Locked_RMW_Read.miss_latency_hist_seqr::bucket_size           32                       (Unspecified)
board.cache_hierarchy.ruby_system.RequestType.Locked_RMW_Read.miss_latency_hist_seqr::max_bucket          319                       (Unspecified)
board.cache_hierarchy.ruby_system.RequestType.Locked_RMW_Read.miss_latency_hist_seqr::samples            4                       (Unspecified)
board.cache_hierarchy.ruby_system.RequestType.Locked_RMW_Read.miss_latency_hist_seqr::mean          162                       (Unspecified)
board.cache_hierarchy.ruby_system.RequestType.Locked_RMW_Read.miss_latency_hist_seqr::gmean   160.967668                       (Unspecified)
board.cache_hierarchy.ruby_system.RequestType.Locked_RMW_Read.miss_latency_hist_seqr::stdev    20.928450                       (Unspecified)
board.cache_hierarchy.ruby_system.RequestType.Locked_RMW_Read.miss_latency_hist_seqr |           0      0.00%      0.00% |           0      0.00%      0.00% |           0      0.00%      0.00% |           0      0.00%      0.00% |           2     50.00%     50.00% |           2     50.00%    100.00% |           0      0.00%    100.00% |           0      0.00%    100.00% |           0      0.00%    100.00% |           0      0.00%    100.00% (Unspecified)
board.cache_hierarchy.ruby_system.RequestType.Locked_RMW_Read.miss_latency_hist_seqr::total            4                       (Unspecified)
board.cache_hierarchy.ruby_system.RequestType.Locked_RMW_Write.latency_hist_seqr::bucket_size            1                       (Unspecified)
board.cache_hierarchy.ruby_system.RequestType.Locked_RMW_Write.latency_hist_seqr::max_bucket            9                       (Unspecified)
board.cache_hierarchy.ruby_system.RequestType.Locked_RMW_Write.latency_hist_seqr::samples           30                       (Unspecified)
board.cache_hierarchy.ruby_system.RequestType.Locked_RMW_Write.latency_hist_seqr::mean            1                       (Unspecified)
board.cache_hierarchy.ruby_system.RequestType.Locked_RMW_Write.latency_hist_seqr::gmean            1                       (Unspecified)
board.cache_hierarchy.ruby_system.RequestType.Locked_RMW_Write.latency_hist_seqr |           0      0.00%      0.00% |          30    100.00%    100.00% |           0      0.00%    100.00% |           0      0.00%    100.00% |           0      0.00%    100.00% |           0      0.00%    100.00% |           0      0.00%    100.00% |           0      0.00%    100.00% |           0      0.00%    100.00% |           0      0.00%    100.00% (Unspecified)
board.cache_hierarchy.ruby_system.RequestType.Locked_RMW_Write.latency_hist_seqr::total           30                       (Unspecified)
board.cache_hierarchy.ruby_system.RequestType.Locked_RMW_Write.hit_latency_hist_seqr::bucket_size            1                       (Unspecified)
board.cache_hierarchy.ruby_system.RequestType.Locked_RMW_Write.hit_latency_hist_seqr::max_bucket            9                       (Unspecified)
board.cache_hierarchy.ruby_system.RequestType.Locked_RMW_Write.hit_latency_hist_seqr::samples           30                       (Unspecified)
board.cache_hierarchy.ruby_system.RequestType.Locked_RMW_Write.hit_latency_hist_seqr::mean            1                       (Unspecified)
board.cache_hierarchy.ruby_system.RequestType.Locked_RMW_Write.hit_latency_hist_seqr::gmean            1                       (Unspecified)
board.cache_hierarchy.ruby_system.RequestType.Locked_RMW_Write.hit_latency_hist_seqr |           0      0.00%      0.00% |          30    100.00%    100.00% |           0      0.00%    100.00% |           0      0.00%    100.00% |           0      0.00%    100.00% |           0      0.00%    100.00% |           0      0.00%    100.00% |           0      0.00%    100.00% |           0      0.00%    100.00% |           0      0.00%    100.00% (Unspecified)
board.cache_hierarchy.ruby_system.RequestType.Locked_RMW_Write.hit_latency_hist_seqr::total           30                       (Unspecified)
board.cache_hierarchy.ruby_system.directory_controllers.power_state.pwrStateResidencyTicks::UNDEFINED   8512108371                       # Cumulative time (in ticks) in various power states (Tick)
board.cache_hierarchy.ruby_system.directory_controllers.requestToDir.m_msg_count       100374                       # Number of messages passed the buffer (Count)
board.cache_hierarchy.ruby_system.directory_controllers.requestToDir.m_buf_msgs     0.003927                       # Average number of messages in buffer ((Count/Tick))
board.cache_hierarchy.ruby_system.directory_controllers.requestToMemory.m_msg_count       141190                       # Number of messages passed the buffer (Count)
board.cache_hierarchy.ruby_system.directory_controllers.requestToMemory.m_buf_msgs     0.005559                       # Average number of messages in buffer ((Count/Tick))
board.cache_hierarchy.ruby_system.directory_controllers.requestToMemory.m_stall_time       304695                       # Total number of ticks messages were stalled in this buffer (Tick)
board.cache_hierarchy.ruby_system.directory_controllers.requestToMemory.m_avg_stall_time     2.158049                       # Average stall ticks per message ((Tick/Count))
board.cache_hierarchy.ruby_system.directory_controllers.responseFromDir.m_msg_count       196652                       # Number of messages passed the buffer (Count)
board.cache_hierarchy.ruby_system.directory_controllers.responseFromDir.m_buf_msgs     0.007693                       # Average number of messages in buffer ((Count/Tick))
board.cache_hierarchy.ruby_system.directory_controllers.responseFromMemory.m_msg_count       141190                       # Number of messages passed the buffer (Count)
board.cache_hierarchy.ruby_system.directory_controllers.responseFromMemory.m_buf_msgs     0.009005                       # Average number of messages in buffer ((Count/Tick))
board.cache_hierarchy.ruby_system.directory_controllers.responseToDir.m_msg_count        96278                       # Number of messages passed the buffer (Count)
board.cache_hierarchy.ruby_system.directory_controllers.responseToDir.m_buf_msgs     0.003766                       # Average number of messages in buffer ((Count/Tick))
board.cache_hierarchy.ruby_system.l1_controllers.fullyBusyCycles        15432                       # cycles for which number of transistions == max transitions (Unspecified)
board.cache_hierarchy.ruby_system.l1_controllers.delayHistogram::samples       342467                       # delay_histogram (Unspecified)
board.cache_hierarchy.ruby_system.l1_controllers.delayHistogram::mean     0.116840                       # delay_histogram (Unspecified)
board.cache_hierarchy.ruby_system.l1_controllers.delayHistogram::stdev     0.887038                       # delay_histogram (Unspecified)
board.cache_hierarchy.ruby_system.l1_controllers.delayHistogram::0-3       336587     98.28%     98.28% # delay_histogram (Unspecified)
board.cache_hierarchy.ruby_system.l1_controllers.delayHistogram::4-7         3096      0.90%     99.19% # delay_histogram (Unspecified)
board.cache_hierarchy.ruby_system.l1_controllers.delayHistogram::8-11         2737      0.80%     99.99% # delay_histogram (Unspecified)
board.cache_hierarchy.ruby_system.l1_controllers.delayHistogram::12-15           29      0.01%     99.99% # delay_histogram (Unspecified)
board.cache_hierarchy.ruby_system.l1_controllers.delayHistogram::16-19           16      0.00%    100.00% # delay_histogram (Unspecified)
board.cache_hierarchy.ruby_system.l1_controllers.delayHistogram::20-23            1      0.00%    100.00% # delay_histogram (Unspecified)
board.cache_hierarchy.ruby_system.l1_controllers.delayHistogram::24-27            1      0.00%    100.00% # delay_histogram (Unspecified)
board.cache_hierarchy.ruby_system.l1_controllers.delayHistogram::total       342467                       # delay_histogram (Unspecified)
board.cache_hierarchy.ruby_system.l1_controllers.L1Dcache.m_demand_hits      6504724                       # Number of cache demand hits (Unspecified)
board.cache_hierarchy.ruby_system.l1_controllers.L1Dcache.m_demand_misses       169836                       # Number of cache demand misses (Unspecified)
board.cache_hierarchy.ruby_system.l1_controllers.L1Dcache.m_demand_accesses      6674560                       # Number of cache demand accesses (Unspecified)
board.cache_hierarchy.ruby_system.l1_controllers.L1Icache.m_demand_hits      3751310                       # Number of cache demand hits (Unspecified)
board.cache_hierarchy.ruby_system.l1_controllers.L1Icache.m_demand_misses         1600                       # Number of cache demand misses (Unspecified)
board.cache_hierarchy.ruby_system.l1_controllers.L1Icache.m_demand_accesses      3752910                       # Number of cache demand accesses (Unspecified)
board.cache_hierarchy.ruby_system.l1_controllers.mandatoryQueue.m_msg_count     10427470                       # Number of messages passed the buffer (Count)
board.cache_hierarchy.ruby_system.l1_controllers.mandatoryQueue.m_buf_msgs     0.407977                       # Average number of messages in buffer ((Count/Tick))
board.cache_hierarchy.ruby_system.l1_controllers.mandatoryQueue.m_stall_time       399600                       # Total number of ticks messages were stalled in this buffer (Tick)
board.cache_hierarchy.ruby_system.l1_controllers.mandatoryQueue.m_stall_count           14                       # Number of times messages were stalled (Count)
board.cache_hierarchy.ruby_system.l1_controllers.mandatoryQueue.m_avg_stall_time     0.038322                       # Average stall ticks per message ((Tick/Count))
board.cache_hierarchy.ruby_system.l1_controllers.power_state.pwrStateResidencyTicks::UNDEFINED   8512108371                       # Cumulative time (in ticks) in various power states (Tick)
board.cache_hierarchy.ruby_system.l1_controllers.prefetcher.RubyPrefetcher.numMissObserved            0                       # Number of misses observed (Unspecified)
board.cache_hierarchy.ruby_system.l1_controllers.prefetcher.RubyPrefetcher.numAllocatedStreams            0                       # Number of streams allocated for prefetching (Unspecified)
board.cache_hierarchy.ruby_system.l1_controllers.prefetcher.RubyPrefetcher.numPrefetchRequested            0                       # Number of prefetch requests made (Unspecified)
board.cache_hierarchy.ruby_system.l1_controllers.prefetcher.RubyPrefetcher.numHits            0                       # Number of prefetched blocks accessed (for the first time) (Unspecified)
board.cache_hierarchy.ruby_system.l1_controllers.prefetcher.RubyPrefetcher.numPartialHits            0                       # Number of misses observed for a block being prefetched (Unspecified)
board.cache_hierarchy.ruby_system.l1_controllers.prefetcher.RubyPrefetcher.numPagesCrossed            0                       # Number of prefetches across pages (Unspecified)
board.cache_hierarchy.ruby_system.l1_controllers.prefetcher.RubyPrefetcher.numMissedPrefetchedBlocks            0                       # Number of misses for blocks that were prefetched, yet missed (Unspecified)
board.cache_hierarchy.ruby_system.l1_controllers.requestFromL1Cache.m_msg_count       340771                       # Number of messages passed the buffer (Count)
board.cache_hierarchy.ruby_system.l1_controllers.requestFromL1Cache.m_buf_msgs     0.026662                       # Average number of messages in buffer ((Count/Tick))
board.cache_hierarchy.ruby_system.l1_controllers.requestToL1Cache.m_msg_count         1697                       # Number of messages passed the buffer (Count)
board.cache_hierarchy.ruby_system.l1_controllers.requestToL1Cache.m_buf_msgs     0.000066                       # Average number of messages in buffer ((Count/Tick))
board.cache_hierarchy.ruby_system.l1_controllers.responseFromL1Cache.m_msg_count         1697                       # Number of messages passed the buffer (Count)
board.cache_hierarchy.ruby_system.l1_controllers.responseFromL1Cache.m_buf_msgs     0.000133                       # Average number of messages in buffer ((Count/Tick))
board.cache_hierarchy.ruby_system.l1_controllers.responseToL1Cache.m_msg_count       340770                       # Number of messages passed the buffer (Count)
board.cache_hierarchy.ruby_system.l1_controllers.responseToL1Cache.m_buf_msgs     0.013331                       # Average number of messages in buffer ((Count/Tick))
board.cache_hierarchy.ruby_system.l1_controllers.sequencer.power_state.pwrStateResidencyTicks::UNDEFINED   8512108371                       # Cumulative time (in ticks) in various power states (Tick)
board.cache_hierarchy.ruby_system.l1_controllers.unblockFromL1Cache.m_msg_count       169832                       # Number of messages passed the buffer (Count)
board.cache_hierarchy.ruby_system.l1_controllers.unblockFromL1Cache.m_buf_msgs     0.006644                       # Average number of messages in buffer ((Count/Tick))
board.cache_hierarchy.ruby_system.l2_controllers.fullyBusyCycles            7                       # cycles for which number of transistions == max transitions (Unspecified)
board.cache_hierarchy.ruby_system.l2_controllers.delayHistogram::samples       708952                       # delay_histogram (Unspecified)
board.cache_hierarchy.ruby_system.l2_controllers.delayHistogram::mean     0.757891                       # delay_histogram (Unspecified)
board.cache_hierarchy.ruby_system.l2_controllers.delayHistogram::stdev     2.453376                       # delay_histogram (Unspecified)
board.cache_hierarchy.ruby_system.l2_controllers.delayHistogram::0-7       648474     91.47%     91.47% # delay_histogram (Unspecified)
board.cache_hierarchy.ruby_system.l2_controllers.delayHistogram::8-15        59148      8.34%     99.81% # delay_histogram (Unspecified)
board.cache_hierarchy.ruby_system.l2_controllers.delayHistogram::16-23         1313      0.19%    100.00% # delay_histogram (Unspecified)
board.cache_hierarchy.ruby_system.l2_controllers.delayHistogram::24-31            2      0.00%    100.00% # delay_histogram (Unspecified)
board.cache_hierarchy.ruby_system.l2_controllers.delayHistogram::32-39            9      0.00%    100.00% # delay_histogram (Unspecified)
board.cache_hierarchy.ruby_system.l2_controllers.delayHistogram::40-47            2      0.00%    100.00% # delay_histogram (Unspecified)
board.cache_hierarchy.ruby_system.l2_controllers.delayHistogram::48-55            4      0.00%    100.00% # delay_histogram (Unspecified)
board.cache_hierarchy.ruby_system.l2_controllers.delayHistogram::total       708952                       # delay_histogram (Unspecified)
board.cache_hierarchy.ruby_system.l2_controllers.DirRequestFromL2Cache.m_msg_count       100375                       # Number of messages passed the buffer (Count)
board.cache_hierarchy.ruby_system.l2_controllers.DirRequestFromL2Cache.m_buf_msgs     0.007853                       # Average number of messages in buffer ((Count/Tick))
board.cache_hierarchy.ruby_system.l2_controllers.L1RequestFromL2Cache.m_msg_count         1701                       # Number of messages passed the buffer (Count)
board.cache_hierarchy.ruby_system.l2_controllers.L1RequestFromL2Cache.m_buf_msgs     0.000067                       # Average number of messages in buffer ((Count/Tick))
board.cache_hierarchy.ruby_system.l2_controllers.L1RequestToL2Cache.m_msg_count       340771                       # Number of messages passed the buffer (Count)
board.cache_hierarchy.ruby_system.l2_controllers.L1RequestToL2Cache.m_buf_msgs     0.013371                       # Average number of messages in buffer ((Count/Tick))
board.cache_hierarchy.ruby_system.l2_controllers.L1RequestToL2Cache.m_stall_time       338994                       # Total number of ticks messages were stalled in this buffer (Tick)
board.cache_hierarchy.ruby_system.l2_controllers.L1RequestToL2Cache.m_stall_count           90                       # Number of times messages were stalled (Count)
board.cache_hierarchy.ruby_system.l2_controllers.L1RequestToL2Cache.m_avg_stall_time     0.994785                       # Average stall ticks per message ((Tick/Count))
board.cache_hierarchy.ruby_system.l2_controllers.L2cache.m_demand_hits        71061                       # Number of cache demand hits (Unspecified)
board.cache_hierarchy.ruby_system.l2_controllers.L2cache.m_demand_misses       100375                       # Number of cache demand misses (Unspecified)
board.cache_hierarchy.ruby_system.l2_controllers.L2cache.m_demand_accesses       171436                       # Number of cache demand accesses (Unspecified)
board.cache_hierarchy.ruby_system.l2_controllers.power_state.pwrStateResidencyTicks::UNDEFINED   8512108371                       # Cumulative time (in ticks) in various power states (Tick)
board.cache_hierarchy.ruby_system.l2_controllers.responseFromL2Cache.m_msg_count       437049                       # Number of messages passed the buffer (Count)
board.cache_hierarchy.ruby_system.l2_controllers.responseFromL2Cache.m_buf_msgs     0.023644                       # Average number of messages in buffer ((Count/Tick))
board.cache_hierarchy.ruby_system.l2_controllers.responseToL2Cache.m_msg_count       198349                       # Number of messages passed the buffer (Count)
board.cache_hierarchy.ruby_system.l2_controllers.responseToL2Cache.m_buf_msgs     0.007760                       # Average number of messages in buffer ((Count/Tick))
board.cache_hierarchy.ruby_system.l2_controllers.unblockToL2Cache.m_msg_count       169832                       # Number of messages passed the buffer (Count)
board.cache_hierarchy.ruby_system.l2_controllers.unblockToL2Cache.m_buf_msgs     0.006644                       # Average number of messages in buffer ((Count/Tick))
board.cache_hierarchy.ruby_system.network.msg_count.Control       543622                       (Unspecified)
board.cache_hierarchy.ruby_system.network.msg_byte.Control      4348976                       (Unspecified)
board.cache_hierarchy.ruby_system.network.msg_count.Request_Control         3394                       (Unspecified)
board.cache_hierarchy.ruby_system.network.msg_byte.Request_Control        27152                       (Unspecified)
board.cache_hierarchy.ruby_system.network.msg_count.Response_Data       625244                       (Unspecified)
board.cache_hierarchy.ruby_system.network.msg_byte.Response_Data     45017568                       (Unspecified)
board.cache_hierarchy.ruby_system.network.msg_count.Response_Control       985014                       (Unspecified)
board.cache_hierarchy.ruby_system.network.msg_byte.Response_Control      7880112                       (Unspecified)
board.cache_hierarchy.ruby_system.network.msg_count.Writeback_Data       116932                       (Unspecified)
board.cache_hierarchy.ruby_system.network.msg_byte.Writeback_Data      8419104                       (Unspecified)
board.cache_hierarchy.ruby_system.network.msg_count.Writeback_Control       221940                       (Unspecified)
board.cache_hierarchy.ruby_system.network.msg_byte.Writeback_Control      1775520                       (Unspecified)
board.cache_hierarchy.ruby_system.network.int_links0.buffers0.m_msg_count       340771                       # Number of messages passed the buffer (Count)
board.cache_hierarchy.ruby_system.network.int_links0.buffers0.m_buf_msgs     0.013331                       # Average number of messages in buffer ((Count/Tick))
board.cache_hierarchy.ruby_system.network.int_links0.buffers1.m_msg_count         1697                       # Number of messages passed the buffer (Count)
board.cache_hierarchy.ruby_system.network.int_links0.buffers1.m_buf_msgs     0.000066                       # Average number of messages in buffer ((Count/Tick))
board.cache_hierarchy.ruby_system.network.int_links0.buffers2.m_msg_count       169832                       # Number of messages passed the buffer (Count)
board.cache_hierarchy.ruby_system.network.int_links0.buffers2.m_buf_msgs     0.006644                       # Average number of messages in buffer ((Count/Tick))
board.cache_hierarchy.ruby_system.network.int_links2.buffers1.m_msg_count       340770                       # Number of messages passed the buffer (Count)
board.cache_hierarchy.ruby_system.network.int_links2.buffers1.m_buf_msgs     0.013331                       # Average number of messages in buffer ((Count/Tick))
board.cache_hierarchy.ruby_system.network.int_links2.buffers2.m_msg_count         1697                       # Number of messages passed the buffer (Count)
board.cache_hierarchy.ruby_system.network.int_links2.buffers2.m_buf_msgs     0.000066                       # Average number of messages in buffer ((Count/Tick))
board.cache_hierarchy.ruby_system.network.int_links3.buffers0.m_msg_count       100375                       # Number of messages passed the buffer (Count)
board.cache_hierarchy.ruby_system.network.int_links3.buffers0.m_buf_msgs     0.003927                       # Average number of messages in buffer ((Count/Tick))
board.cache_hierarchy.ruby_system.network.int_links3.buffers1.m_msg_count        96279                       # Number of messages passed the buffer (Count)
board.cache_hierarchy.ruby_system.network.int_links3.buffers1.m_buf_msgs     0.003767                       # Average number of messages in buffer ((Count/Tick))
board.cache_hierarchy.ruby_system.network.int_links5.buffers1.m_msg_count       196652                       # Number of messages passed the buffer (Count)
board.cache_hierarchy.ruby_system.network.int_links5.buffers1.m_buf_msgs     0.007693                       # Average number of messages in buffer ((Count/Tick))
board.cache_hierarchy.ruby_system.network.power_state.pwrStateResidencyTicks::UNDEFINED   8512108371                       # Cumulative time (in ticks) in various power states (Tick)
board.cache_hierarchy.ruby_system.network.routers0.percent_links_utilized     1.756489                       (Unspecified)
board.cache_hierarchy.ruby_system.network.routers0.msg_count.Control::0       171436                       (Unspecified)
board.cache_hierarchy.ruby_system.network.routers0.msg_bytes.Control::0      1371488                       (Unspecified)
board.cache_hierarchy.ruby_system.network.routers0.msg_count.Request_Control::2         1697                       (Unspecified)
board.cache_hierarchy.ruby_system.network.routers0.msg_bytes.Request_Control::2        13576                       (Unspecified)
board.cache_hierarchy.ruby_system.network.routers0.msg_count.Response_Data::1       171432                       (Unspecified)
board.cache_hierarchy.ruby_system.network.routers0.msg_bytes.Response_Data::1     12343104                       (Unspecified)
board.cache_hierarchy.ruby_system.network.routers0.msg_count.Response_Control::1       170934                       (Unspecified)
board.cache_hierarchy.ruby_system.network.routers0.msg_count.Response_Control::2       169832                       (Unspecified)
board.cache_hierarchy.ruby_system.network.routers0.msg_bytes.Response_Control::1      1367472                       (Unspecified)
board.cache_hierarchy.ruby_system.network.routers0.msg_bytes.Response_Control::2      1358656                       (Unspecified)
board.cache_hierarchy.ruby_system.network.routers0.msg_count.Writeback_Data::0        58365                       (Unspecified)
board.cache_hierarchy.ruby_system.network.routers0.msg_count.Writeback_Data::1          101                       (Unspecified)
board.cache_hierarchy.ruby_system.network.routers0.msg_bytes.Writeback_Data::0      4202280                       (Unspecified)
board.cache_hierarchy.ruby_system.network.routers0.msg_bytes.Writeback_Data::1         7272                       (Unspecified)
board.cache_hierarchy.ruby_system.network.routers0.msg_count.Writeback_Control::0       110970                       (Unspecified)
board.cache_hierarchy.ruby_system.network.routers0.msg_bytes.Writeback_Control::0       887760                       (Unspecified)
board.cache_hierarchy.ruby_system.network.routers0.port_buffers1.m_msg_count       340770                       # Number of messages passed the buffer (Count)
board.cache_hierarchy.ruby_system.network.routers0.port_buffers1.m_buf_msgs     0.013331                       # Average number of messages in buffer ((Count/Tick))
board.cache_hierarchy.ruby_system.network.routers0.port_buffers2.m_msg_count         1697                       # Number of messages passed the buffer (Count)
board.cache_hierarchy.ruby_system.network.routers0.port_buffers2.m_buf_msgs     0.000066                       # Average number of messages in buffer ((Count/Tick))
board.cache_hierarchy.ruby_system.network.routers0.port_buffers3.m_msg_count       340771                       # Number of messages passed the buffer (Count)
board.cache_hierarchy.ruby_system.network.routers0.port_buffers3.m_buf_msgs     0.023636                       # Average number of messages in buffer ((Count/Tick))
board.cache_hierarchy.ruby_system.network.routers0.port_buffers3.m_stall_time     87718860                       # Total number of ticks messages were stalled in this buffer (Tick)
board.cache_hierarchy.ruby_system.network.routers0.port_buffers3.m_avg_stall_time   257.412925                       # Average stall ticks per message ((Tick/Count))
board.cache_hierarchy.ruby_system.network.routers0.port_buffers4.m_msg_count         1697                       # Number of messages passed the buffer (Count)
board.cache_hierarchy.ruby_system.network.routers0.port_buffers4.m_buf_msgs     0.000066                       # Average number of messages in buffer ((Count/Tick))
board.cache_hierarchy.ruby_system.network.routers0.port_buffers5.m_msg_count       169832                       # Number of messages passed the buffer (Count)
board.cache_hierarchy.ruby_system.network.routers0.port_buffers5.m_buf_msgs     0.006647                       # Average number of messages in buffer ((Count/Tick))
board.cache_hierarchy.ruby_system.network.routers0.port_buffers5.m_stall_time        22311                       # Total number of ticks messages were stalled in this buffer (Tick)
board.cache_hierarchy.ruby_system.network.routers0.port_buffers5.m_avg_stall_time     0.131371                       # Average stall ticks per message ((Tick/Count))
board.cache_hierarchy.ruby_system.network.routers0.power_state.pwrStateResidencyTicks::UNDEFINED   8512108371                       # Cumulative time (in ticks) in various power states (Tick)
board.cache_hierarchy.ruby_system.network.routers0.throttle00.acc_link_utilization 856961.500000                       # Accumulated link utilization (Count)
board.cache_hierarchy.ruby_system.network.routers0.throttle00.link_utilization     3.352497                       # Average link utilization (Ratio)
board.cache_hierarchy.ruby_system.network.routers0.throttle00.total_msg_count       342467                       # Total number of messages forwarded by this switch (Count)
board.cache_hierarchy.ruby_system.network.routers0.throttle00.total_msg_bytes     13711384                       # Total number of bytes forwarded by this switch (Byte)
board.cache_hierarchy.ruby_system.network.routers0.throttle00.total_data_msg_bytes     10971648                       # Total number of data bytes forwarded by this switch (Byte)
board.cache_hierarchy.ruby_system.network.routers0.throttle00.total_msg_wait_time            0                       # Total time spend forwarding messages (Tick)
board.cache_hierarchy.ruby_system.network.routers0.throttle00.total_stall_cy            0                       # Total time spent blocked on any output link (Cycle)
board.cache_hierarchy.ruby_system.network.routers0.throttle00.total_bw_sat_cy       685728                       # Total time bandwidth was saturated on any output link (Cycle)
board.cache_hierarchy.ruby_system.network.routers0.throttle00.avg_msg_wait_time            0                       # Average time a message took to be forwarded (Ratio)
board.cache_hierarchy.ruby_system.network.routers0.throttle00.avg_bandwidth         1.50                       # Average bandwidth (GB/s) (Ratio)
board.cache_hierarchy.ruby_system.network.routers0.throttle00.avg_useful_bandwidth         1.20                       # Average usefull (only data) bandwidth (GB/s) (Ratio)
board.cache_hierarchy.ruby_system.network.routers0.throttle00.msg_count.Request_Control::2         1697                       (Unspecified)
board.cache_hierarchy.ruby_system.network.routers0.throttle00.msg_bytes.Request_Control::2        13576                       (Unspecified)
board.cache_hierarchy.ruby_system.network.routers0.throttle00.msg_count.Response_Data::1       171432                       (Unspecified)
board.cache_hierarchy.ruby_system.network.routers0.throttle00.msg_bytes.Response_Data::1     12343104                       (Unspecified)
board.cache_hierarchy.ruby_system.network.routers0.throttle00.msg_count.Response_Control::1       169338                       (Unspecified)
board.cache_hierarchy.ruby_system.network.routers0.throttle00.msg_bytes.Response_Control::1      1354704                       (Unspecified)
board.cache_hierarchy.ruby_system.network.routers0.throttle01.acc_link_utilization       490014                       # Accumulated link utilization (Count)
board.cache_hierarchy.ruby_system.network.routers0.throttle01.link_utilization     1.916971                       # Average link utilization (Ratio)
board.cache_hierarchy.ruby_system.network.routers0.throttle01.total_msg_count       512300                       # Total number of messages forwarded by this switch (Count)
board.cache_hierarchy.ruby_system.network.routers0.throttle01.total_msg_bytes      7840224                       # Total number of bytes forwarded by this switch (Byte)
board.cache_hierarchy.ruby_system.network.routers0.throttle01.total_data_msg_bytes      3741824                       # Total number of data bytes forwarded by this switch (Byte)
board.cache_hierarchy.ruby_system.network.routers0.throttle01.total_msg_wait_time     87741171                       # Total time spend forwarding messages (Tick)
board.cache_hierarchy.ruby_system.network.routers0.throttle01.total_stall_cy            0                       # Total time spent blocked on any output link (Cycle)
board.cache_hierarchy.ruby_system.network.routers0.throttle01.total_bw_sat_cy       247050                       # Total time bandwidth was saturated on any output link (Cycle)
board.cache_hierarchy.ruby_system.network.routers0.throttle01.avg_msg_wait_time   171.269122                       # Average time a message took to be forwarded (Ratio)
board.cache_hierarchy.ruby_system.network.routers0.throttle01.avg_bandwidth         0.86                       # Average bandwidth (GB/s) (Ratio)
board.cache_hierarchy.ruby_system.network.routers0.throttle01.avg_useful_bandwidth         0.41                       # Average usefull (only data) bandwidth (GB/s) (Ratio)
board.cache_hierarchy.ruby_system.network.routers0.throttle01.msg_count.Control::0       171436                       (Unspecified)
board.cache_hierarchy.ruby_system.network.routers0.throttle01.msg_bytes.Control::0      1371488                       (Unspecified)
board.cache_hierarchy.ruby_system.network.routers0.throttle01.msg_count.Response_Control::1         1596                       (Unspecified)
board.cache_hierarchy.ruby_system.network.routers0.throttle01.msg_count.Response_Control::2       169832                       (Unspecified)
board.cache_hierarchy.ruby_system.network.routers0.throttle01.msg_bytes.Response_Control::1        12768                       (Unspecified)
board.cache_hierarchy.ruby_system.network.routers0.throttle01.msg_bytes.Response_Control::2      1358656                       (Unspecified)
board.cache_hierarchy.ruby_system.network.routers0.throttle01.msg_count.Writeback_Data::0        58365                       (Unspecified)
board.cache_hierarchy.ruby_system.network.routers0.throttle01.msg_count.Writeback_Data::1          101                       (Unspecified)
board.cache_hierarchy.ruby_system.network.routers0.throttle01.msg_bytes.Writeback_Data::0      4202280                       (Unspecified)
board.cache_hierarchy.ruby_system.network.routers0.throttle01.msg_bytes.Writeback_Data::1         7272                       (Unspecified)
board.cache_hierarchy.ruby_system.network.routers0.throttle01.msg_count.Writeback_Control::0       110970                       (Unspecified)
board.cache_hierarchy.ruby_system.network.routers0.throttle01.msg_bytes.Writeback_Control::0       887760                       (Unspecified)
board.cache_hierarchy.ruby_system.network.routers0.throttle02.acc_link_utilization            0                       # Accumulated link utilization (Count)
board.cache_hierarchy.ruby_system.network.routers0.throttle02.link_utilization            0                       # Average link utilization (Ratio)
board.cache_hierarchy.ruby_system.network.routers0.throttle02.total_msg_count            0                       # Total number of messages forwarded by this switch (Count)
board.cache_hierarchy.ruby_system.network.routers0.throttle02.total_msg_bytes            0                       # Total number of bytes forwarded by this switch (Byte)
board.cache_hierarchy.ruby_system.network.routers0.throttle02.total_data_msg_bytes            0                       # Total number of data bytes forwarded by this switch (Byte)
board.cache_hierarchy.ruby_system.network.routers0.throttle02.total_msg_wait_time            0                       # Total time spend forwarding messages (Tick)
board.cache_hierarchy.ruby_system.network.routers0.throttle02.total_stall_cy            0                       # Total time spent blocked on any output link (Cycle)
board.cache_hierarchy.ruby_system.network.routers0.throttle02.total_bw_sat_cy            0                       # Total time bandwidth was saturated on any output link (Cycle)
board.cache_hierarchy.ruby_system.network.routers0.throttle02.avg_msg_wait_time          nan                       # Average time a message took to be forwarded (Ratio)
board.cache_hierarchy.ruby_system.network.routers0.throttle02.avg_bandwidth         0.00                       # Average bandwidth (GB/s) (Ratio)
board.cache_hierarchy.ruby_system.network.routers0.throttle02.avg_useful_bandwidth         0.00                       # Average usefull (only data) bandwidth (GB/s) (Ratio)
board.cache_hierarchy.ruby_system.network.routers1.percent_links_utilized     2.749391                       (Unspecified)
board.cache_hierarchy.ruby_system.network.routers1.msg_count.Control::0       271811                       (Unspecified)
board.cache_hierarchy.ruby_system.network.routers1.msg_bytes.Control::0      2174488                       (Unspecified)
board.cache_hierarchy.ruby_system.network.routers1.msg_count.Request_Control::2         1697                       (Unspecified)
board.cache_hierarchy.ruby_system.network.routers1.msg_bytes.Request_Control::2        13576                       (Unspecified)
board.cache_hierarchy.ruby_system.network.routers1.msg_count.Response_Data::1       312622                       (Unspecified)
board.cache_hierarchy.ruby_system.network.routers1.msg_bytes.Response_Data::1     22508784                       (Unspecified)
board.cache_hierarchy.ruby_system.network.routers1.msg_count.Response_Control::1       322675                       (Unspecified)
board.cache_hierarchy.ruby_system.network.routers1.msg_count.Response_Control::2       169832                       (Unspecified)
board.cache_hierarchy.ruby_system.network.routers1.msg_bytes.Response_Control::1      2581400                       (Unspecified)
board.cache_hierarchy.ruby_system.network.routers1.msg_bytes.Response_Control::2      1358656                       (Unspecified)
board.cache_hierarchy.ruby_system.network.routers1.msg_count.Writeback_Data::0        58365                       (Unspecified)
board.cache_hierarchy.ruby_system.network.routers1.msg_count.Writeback_Data::1          101                       (Unspecified)
board.cache_hierarchy.ruby_system.network.routers1.msg_bytes.Writeback_Data::0      4202280                       (Unspecified)
board.cache_hierarchy.ruby_system.network.routers1.msg_bytes.Writeback_Data::1         7272                       (Unspecified)
board.cache_hierarchy.ruby_system.network.routers1.msg_count.Writeback_Control::0       110970                       (Unspecified)
board.cache_hierarchy.ruby_system.network.routers1.msg_bytes.Writeback_Control::0       887760                       (Unspecified)
board.cache_hierarchy.ruby_system.network.routers1.port_buffers0.m_msg_count       340771                       # Number of messages passed the buffer (Count)
board.cache_hierarchy.ruby_system.network.routers1.port_buffers0.m_buf_msgs     0.013500                       # Average number of messages in buffer ((Count/Tick))
board.cache_hierarchy.ruby_system.network.routers1.port_buffers0.m_stall_time      1435230                       # Total number of ticks messages were stalled in this buffer (Tick)
board.cache_hierarchy.ruby_system.network.routers1.port_buffers0.m_avg_stall_time     4.211714                       # Average stall ticks per message ((Tick/Count))
board.cache_hierarchy.ruby_system.network.routers1.port_buffers1.m_msg_count       198349                       # Number of messages passed the buffer (Count)
board.cache_hierarchy.ruby_system.network.routers1.port_buffers1.m_buf_msgs     0.007760                       # Average number of messages in buffer ((Count/Tick))
board.cache_hierarchy.ruby_system.network.routers1.port_buffers1.m_stall_time         6327                       # Total number of ticks messages were stalled in this buffer (Tick)
board.cache_hierarchy.ruby_system.network.routers1.port_buffers1.m_avg_stall_time     0.031898                       # Average stall ticks per message ((Tick/Count))
board.cache_hierarchy.ruby_system.network.routers1.port_buffers2.m_msg_count       169832                       # Number of messages passed the buffer (Count)
board.cache_hierarchy.ruby_system.network.routers1.port_buffers2.m_buf_msgs     0.006644                       # Average number of messages in buffer ((Count/Tick))
board.cache_hierarchy.ruby_system.network.routers1.port_buffers2.m_stall_time         3330                       # Total number of ticks messages were stalled in this buffer (Tick)
board.cache_hierarchy.ruby_system.network.routers1.port_buffers2.m_avg_stall_time     0.019608                       # Average stall ticks per message ((Tick/Count))
board.cache_hierarchy.ruby_system.network.routers1.port_buffers4.m_msg_count       340770                       # Number of messages passed the buffer (Count)
board.cache_hierarchy.ruby_system.network.routers1.port_buffers4.m_buf_msgs     0.014114                       # Average number of messages in buffer ((Count/Tick))
board.cache_hierarchy.ruby_system.network.routers1.port_buffers4.m_stall_time      6662331                       # Total number of ticks messages were stalled in this buffer (Tick)
[...]
board.processor.cores.core.fetch.predictedBranches      2695428                       # Number of branches that fetch has predicted taken (Count)
board.processor.cores.core.fetch.cycles      19415135                       # Number of cycles fetch has run and was not squashing or blocked (Cycle)
board.processor.cores.core.fetch.squashCycles       427448                       # Number of cycles fetch has spent squashing (Cycle)
board.processor.cores.core.fetch.miscStallCycles          160                       # Number of cycles fetch has spent waiting on interrupts, or bad addresses, or out of MSHRs (Cycle)
board.processor.cores.core.fetch.pendingTrapStallCycles          403                       # Number of stall cycles due to pending traps (Cycle)
board.processor.cores.core.fetch.icacheWaitRetryStallCycles       162053                       # Number of stall cycles due to full MSHR (Cycle)
board.processor.cores.core.fetch.cacheLines      3753161                       # Number of cache lines fetched (Count)
board.processor.cores.core.fetch.icacheSquashes        24620                       # Number of outstanding Icache misses that were squashed (Count)
board.processor.cores.core.fetch.nisnDist::samples     23783525                       # Number of instructions fetched each cycle (Total) (Count)
board.processor.cores.core.fetch.nisnDist::mean     1.853265                       # Number of instructions fetched each cycle (Total) (Count)
board.processor.cores.core.fetch.nisnDist::stdev     1.898473                       # Number of instructions fetched each cycle (Total) (Count)
board.processor.cores.core.fetch.nisnDist::underflows            0      0.00%      0.00% # Number of instructions fetched each cycle (Total) (Count)
board.processor.cores.core.fetch.nisnDist::0     11435022     48.08%     48.08% # Number of instructions fetched each cycle (Total) (Count)
board.processor.cores.core.fetch.nisnDist::1       821517      3.45%     51.53% # Number of instructions fetched each cycle (Total) (Count)
board.processor.cores.core.fetch.nisnDist::2      1059977      4.46%     55.99% # Number of instructions fetched each cycle (Total) (Count)
board.processor.cores.core.fetch.nisnDist::3       732324      3.08%     59.07% # Number of instructions fetched each cycle (Total) (Count)
board.processor.cores.core.fetch.nisnDist::4      9734685     40.93%    100.00% # Number of instructions fetched each cycle (Total) (Count)
board.processor.cores.core.fetch.nisnDist::overflows            0      0.00%    100.00% # Number of instructions fetched each cycle (Total) (Count)
board.processor.cores.core.fetch.nisnDist::min_value            0                       # Number of instructions fetched each cycle (Total) (Count)
board.processor.cores.core.fetch.nisnDist::max_value            4                       # Number of instructions fetched each cycle (Total) (Count)
board.processor.cores.core.fetch.nisnDist::total     23783525                       # Number of instructions fetched each cycle (Total) (Count)
board.processor.cores.core.fetchStats0.numInsts     21483389                       # Number of instructions fetched (thread level) (Count)
board.processor.cores.core.fetchStats0.numOps            0                       # Number of ops (including micro ops) fetched (thread level) (Count)
board.processor.cores.core.fetchStats0.fetchRate     0.840446                       # Number of inst fetches per cycle ((Count/Cycle))
board.processor.cores.core.fetchStats0.numBranches      4360740                       # Number of branches fetched (Count)
board.processor.cores.core.fetchStats0.branchRate     0.170595                       # Number of branch fetches per cycle (Ratio)
board.processor.cores.core.fetchStats0.icacheStallCycles      3992050                       # ICache total stall cycles (Cycle)
board.processor.cores.core.fetchStats0.numFetchSuspends            0                       # Number of times Execute suspended instruction fetching (Count)
board.processor.cores.core.iew.idleCycles            0                       # Number of cycles IEW is idle (Cycle)
board.processor.cores.core.iew.squashCycles       166501                       # Number of cycles IEW is squashing (Cycle)
board.processor.cores.core.iew.blockCycles      3585041                       # Number of cycles IEW is blocking (Cycle)
board.processor.cores.core.iew.unblockCycles       146964                       # Number of cycles IEW is unblocking (Cycle)
board.processor.cores.core.iew.dispatchedInsts     41183749                       # Number of instructions dispatched to IQ (Count)
board.processor.cores.core.iew.dispSquashedInsts        55034                       # Number of squashed instructions skipped by dispatch (Count)
board.processor.cores.core.iew.dispLoadInsts      5788083                       # Number of dispatched load instructions (Count)
board.processor.cores.core.iew.dispStoreInsts      2895455                       # Number of dispatched store instructions (Count)
board.processor.cores.core.iew.dispNonSpecInsts           65                       # Number of dispatched non-speculative instructions (Count)
board.processor.cores.core.iew.iqFullEvents        35957                       # Number of times the IQ has become full, causing a stall (Count)
board.processor.cores.core.iew.lsqFullEvents        88905                       # Number of times the LSQ has become full, causing a stall (Count)
board.processor.cores.core.iew.memOrderViolationEvents           91                       # Number of memory order violations (Count)
board.processor.cores.core.iew.predictedTakenIncorrect        70683                       # Number of branches that were predicted taken incorrectly (Count)
board.processor.cores.core.iew.predictedNotTakenIncorrect        95831                       # Number of branches that were predicted not taken incorrectly (Count)
board.processor.cores.core.iew.branchMispredicts       166514                       # Number of branch mispredicts detected at execute (Count)
board.processor.cores.core.iew.instsToCommit     39140783                       # Cumulative count of insts sent to commit (Count)
board.processor.cores.core.iew.writebackCount     39072331                       # Cumulative count of insts written-back (Count)
board.processor.cores.core.iew.producerInst     27311878                       # Number of instructions producing a value (Count)
board.processor.cores.core.iew.consumerInst     49124205                       # Number of instructions consuming a value (Count)
board.processor.cores.core.iew.wbRate        1.528539                       # Insts written-back per cycle ((Count/Cycle))
board.processor.cores.core.iew.wbFanout      0.555976                       # Average fanout of values written-back ((Count/Count))
board.processor.cores.core.interrupts.clk_domain.clock         5328                       # Clock period in ticks (Tick)
board.processor.cores.core.lsq0.forwLoads       514697                       # Number of loads that had data forwarded from stores (Count)
board.processor.cores.core.lsq0.squashedLoads      1006549                       # Number of loads squashed (Count)
board.processor.cores.core.lsq0.ignoredResponses          155                       # Number of memory responses ignored because the instruction is squashed (Count)
board.processor.cores.core.lsq0.memOrderViolation           91                       # Number of memory ordering violations (Count)
board.processor.cores.core.lsq0.squashedStores       399604                       # Number of stores squashed (Count)
board.processor.cores.core.lsq0.rescheduledLoads         9611                       # Number of loads that were rescheduled (Count)
board.processor.cores.core.lsq0.blockedByCache        10525                       # Number of times an access to memory failed due to the cache being blocked (Count)
board.processor.cores.core.lsq0.loadToUse::samples      4781534                       # Distribution of cycle latency between the first time a load is issued and its completion (Unspecified)
board.processor.cores.core.lsq0.loadToUse::mean    16.821968                       # Distribution of cycle latency between the first time a load is issued and its completion (Unspecified)
board.processor.cores.core.lsq0.loadToUse::stdev    59.333655                       # Distribution of cycle latency between the first time a load is issued and its completion (Unspecified)
board.processor.cores.core.lsq0.loadToUse::0-9      4346432     90.90%     90.90% # Distribution of cycle latency between the first time a load is issued and its completion (Unspecified)
board.processor.cores.core.lsq0.loadToUse::10-19        91518      1.91%     92.81% # Distribution of cycle latency between the first time a load is issued and its completion (Unspecified)
board.processor.cores.core.lsq0.loadToUse::20-29         9543      0.20%     93.01% # Distribution of cycle latency between the first time a load is issued and its completion (Unspecified)
board.processor.cores.core.lsq0.loadToUse::30-39         2570      0.05%     93.07% # Distribution of cycle latency between the first time a load is issued and its completion (Unspecified)
board.processor.cores.core.lsq0.loadToUse::40-49         3977      0.08%     93.15% # Distribution of cycle latency between the first time a load is issued and its completion (Unspecified)
board.processor.cores.core.lsq0.loadToUse::50-59         3639      0.08%     93.23% # Distribution of cycle latency between the first time a load is issued and its completion (Unspecified)
board.processor.cores.core.lsq0.loadToUse::60-69          723      0.02%     93.24% # Distribution of cycle latency between the first time a load is issued and its completion (Unspecified)
board.processor.cores.core.lsq0.loadToUse::70-79          632      0.01%     93.26% # Distribution of cycle latency between the first time a load is issued and its completion (Unspecified)
board.processor.cores.core.lsq0.loadToUse::80-89          591      0.01%     93.27% # Distribution of cycle latency between the first time a load is issued and its completion (Unspecified)
board.processor.cores.core.lsq0.loadToUse::90-99          812      0.02%     93.28% # Distribution of cycle latency between the first time a load is issued and its completion (Unspecified)
board.processor.cores.core.lsq0.loadToUse::100-109         3845      0.08%     93.37% # Distribution of cycle latency between the first time a load is issued and its completion (Unspecified)
board.processor.cores.core.lsq0.loadToUse::110-119         2677      0.06%     93.42% # Distribution of cycle latency between the first time a load is issued and its completion (Unspecified)
board.processor.cores.core.lsq0.loadToUse::120-129         2334      0.05%     93.47% # Distribution of cycle latency between the first time a load is issued and its completion (Unspecified)
board.processor.cores.core.lsq0.loadToUse::130-139        22587      0.47%     93.94% # Distribution of cycle latency between the first time a load is issued and its completion (Unspecified)
board.processor.cores.core.lsq0.loadToUse::140-149        51838      1.08%     95.03% # Distribution of cycle latency between the first time a load is issued and its completion (Unspecified)
board.processor.cores.core.lsq0.loadToUse::150-159        21058      0.44%     95.47% # Distribution of cycle latency between the first time a load is issued and its completion (Unspecified)
board.processor.cores.core.lsq0.loadToUse::160-169        12402      0.26%     95.73% # Distribution of cycle latency between the first time a load is issued and its completion (Unspecified)
board.processor.cores.core.lsq0.loadToUse::170-179        22360      0.47%     96.19% # Distribution of cycle latency between the first time a load is issued and its completion (Unspecified)
board.processor.cores.core.lsq0.loadToUse::180-189        30193      0.63%     96.83% # Distribution of cycle latency between the first time a load is issued and its completion (Unspecified)
board.processor.cores.core.lsq0.loadToUse::190-199        33221      0.69%     97.52% # Distribution of cycle latency between the first time a load is issued and its completion (Unspecified)
board.processor.cores.core.lsq0.loadToUse::200-209        16427      0.34%     97.86% # Distribution of cycle latency between the first time a load is issued and its completion (Unspecified)
board.processor.cores.core.lsq0.loadToUse::210-219        23787      0.50%     98.36% # Distribution of cycle latency between the first time a load is issued and its completion (Unspecified)
board.processor.cores.core.lsq0.loadToUse::220-229        27750      0.58%     98.94% # Distribution of cycle latency between the first time a load is issued and its completion (Unspecified)
board.processor.cores.core.lsq0.loadToUse::230-239        23062      0.48%     99.42% # Distribution of cycle latency between the first time a load is issued and its completion (Unspecified)
board.processor.cores.core.lsq0.loadToUse::240-249         3277      0.07%     99.49% # Distribution of cycle latency between the first time a load is issued and its completion (Unspecified)
board.processor.cores.core.lsq0.loadToUse::250-259          324      0.01%     99.50% # Distribution of cycle latency between the first time a load is issued and its completion (Unspecified)
board.processor.cores.core.lsq0.loadToUse::260-269          347      0.01%     99.51% # Distribution of cycle latency between the first time a load is issued and its completion (Unspecified)
board.processor.cores.core.lsq0.loadToUse::270-279          426      0.01%     99.52% # Distribution of cycle latency between the first time a load is issued and its completion (Unspecified)
board.processor.cores.core.lsq0.loadToUse::280-289          590      0.01%     99.53% # Distribution of cycle latency between the first time a load is issued and its completion (Unspecified)
board.processor.cores.core.lsq0.loadToUse::290-299          958      0.02%     99.55% # Distribution of cycle latency between the first time a load is issued and its completion (Unspecified)
board.processor.cores.core.lsq0.loadToUse::overflows        21634      0.45%    100.00% # Distribution of cycle latency between the first time a load is issued and its completion (Unspecified)
board.processor.cores.core.lsq0.loadToUse::min_value            2                       # Distribution of cycle latency between the first time a load is issued and its completion (Unspecified)
board.processor.cores.core.lsq0.loadToUse::max_value         1637                       # Distribution of cycle latency between the first time a load is issued and its completion (Unspecified)
board.processor.cores.core.lsq0.loadToUse::total      4781534                       # Distribution of cycle latency between the first time a load is issued and its completion (Unspecified)
board.processor.cores.core.mmu.dtb.rdAccesses      5546999                       # TLB accesses on read requests (Count)
board.processor.cores.core.mmu.dtb.wrAccesses      2712238                       # TLB accesses on write requests (Count)
board.processor.cores.core.mmu.dtb.rdMisses        55226                       # TLB misses on read requests (Count)
board.processor.cores.core.mmu.dtb.wrMisses          984                       # TLB misses on write requests (Count)
board.processor.cores.core.mmu.dtb.walker.power_state.pwrStateResidencyTicks::UNDEFINED   8512108371                       # Cumulative time (in ticks) in various power states (Tick)
board.processor.cores.core.mmu.itb.rdAccesses            0                       # TLB accesses on read requests (Count)
board.processor.cores.core.mmu.itb.wrAccesses      3753234                       # TLB accesses on write requests (Count)
board.processor.cores.core.mmu.itb.rdMisses            0                       # TLB misses on read requests (Count)
board.processor.cores.core.mmu.itb.wrMisses          163                       # TLB misses on write requests (Count)
board.processor.cores.core.mmu.itb.walker.power_state.pwrStateResidencyTicks::UNDEFINED   8512108371                       # Cumulative time (in ticks) in various power states (Tick)
board.processor.cores.core.power_state.pwrStateResidencyTicks::ON   8512108371                       # Cumulative time (in ticks) in various power states (Tick)
board.processor.cores.core.rename.squashCycles       166501                       # Number of cycles rename is squashing (Cycle)
board.processor.cores.core.rename.idleCycles      4385632                       # Number of cycles rename is idle (Cycle)
board.processor.cores.core.rename.blockCycles      7301500                       # Number of cycles rename is blocking (Cycle)
board.processor.cores.core.rename.serializeStallCycles         1419                       # count of cycles rename stalled for serializing inst (Cycle)
board.processor.cores.core.rename.runCycles     10522564                       # Number of cycles rename is running (Cycle)
board.processor.cores.core.rename.unblockCycles      1405909                       # Number of cycles rename is unblocking (Cycle)
board.processor.cores.core.rename.renamedInsts     42054901                       # Number of instructions processed by rename (Count)
board.processor.cores.core.rename.ROBFullEvents       457420                       # Number of times rename has blocked due to ROB full (Count)
board.processor.cores.core.rename.IQFullEvents       449293                       # Number of times rename has blocked due to IQ full (Count)
board.processor.cores.core.rename.SQFullEvents       377322                       # Number of times rename has blocked due to SQ full (Count)
board.processor.cores.core.rename.renamedOperands     66717728                       # Number of destination operands rename has renamed (Count)
board.processor.cores.core.rename.lookups    140985932                       # Number of register rename lookups that rename has made (Count)
board.processor.cores.core.rename.intLookups     53187694                       # Number of integer rename lookups (Count)
board.processor.cores.core.rename.fpLookups      4735288                       # Number of floating rename lookups (Count)
board.processor.cores.core.rename.committedMaps     55271980                       # Number of HB maps that are committed (Count)
board.processor.cores.core.rename.undoneMaps     11445748                       # Number of HB maps that are undone due to squashing (Count)
board.processor.cores.core.rename.serializing           38                       # count of serializing insts renamed (Count)
board.processor.cores.core.rename.tempSerializing           37                       # count of temporary serializing insts renamed (Count)
board.processor.cores.core.rename.skidInsts      2574782                       # count of insts added to the skid buffer (Count)
board.processor.cores.core.rob.reads         62306474                       # The number of ROB reads (Count)
board.processor.cores.core.rob.writes        82553504                       # The number of ROB writes (Count)
board.processor.cores.core.thread_0.numInsts     16896977                       # Number of Instructions committed (Count)
board.processor.cores.core.thread_0.numOps     34971726                       # Number of Ops committed (Count)
board.processor.cores.core.thread_0.numMemRefs            0                       # Number of Memory References (Count)
board.processor.cores.core.workload.numSyscalls        10030                       # Number of system calls (Count)
board.workload.inst.arm                             0                       # number of arm instructions executed (Count)
board.workload.inst.quiesce                         0                       # number of quiesce instructions executed (Count)

---------- End Simulation Statistics   ----------
