
---------- Begin Simulation Statistics ----------
simSeconds                                   0.008917                       # Number of seconds simulated (Second)
simTicks                                   8916774300                       # Number of ticks simulated (Tick)
finalTick                                  8916774300                       # Number of ticks from beginning of simulation (restored from checkpoints and never reset) (Tick)
simFreq                                  1000000000000                       # The number of ticks per simulated second ((Tick/Second))
hostSeconds                                    120.28                       # Real time elapsed on the host (Second)
hostTickRate                                 74135612                       # The number of ticks simulated per host second (ticks/s) ((Tick/Second))
hostMemory                                    2523784                       # Number of bytes of host memory used (Byte)
simInsts                                     33875357                       # Number of instructions simulated (Count)
simOps                                       63757081                       # Number of ops (including micro ops) simulated (Count)
hostInstRate                                   281645                       # Simulator instruction rate (inst/s) ((Count/Second))
hostOpRate                                     530087                       # Simulator op (including micro ops) rate (op/s) ((Count/Second))
board.cache_hierarchy.ruby_system.delayHistogram::bucket_size            4                       # delay histogram for all message (Unspecified)
board.cache_hierarchy.ruby_system.delayHistogram::max_bucket           39                       # delay histogram for all message (Unspecified)
board.cache_hierarchy.ruby_system.delayHistogram::samples       179134                       # delay histogram for all message (Unspecified)
board.cache_hierarchy.ruby_system.delayHistogram::mean     0.909420                       # delay histogram for all message (Unspecified)
board.cache_hierarchy.ruby_system.delayHistogram::stdev     2.677611                       # delay histogram for all message (Unspecified)
board.cache_hierarchy.ruby_system.delayHistogram |      159759     89.18%     89.18% |         821      0.46%     89.64% |       17507      9.77%     99.42% |          64      0.04%     99.45% |         966      0.54%     99.99% |           6      0.00%     99.99% |          10      0.01%    100.00% |           0      0.00%    100.00% |           1      0.00%    100.00% |           0      0.00%    100.00% # delay histogram for all message (Unspecified)
board.cache_hierarchy.ruby_system.delayHistogram::total       179134                       # delay histogram for all message (Unspecified)
board.cache_hierarchy.ruby_system.m_outstandReqHistSeqr::bucket_size            2                       (Unspecified)
board.cache_hierarchy.ruby_system.m_outstandReqHistSeqr::max_bucket           19                       (Unspecified)
board.cache_hierarchy.ruby_system.m_outstandReqHistSeqr::samples     17413516                       (Unspecified)
board.cache_hierarchy.ruby_system.m_outstandReqHistSeqr::mean     1.265624                       (Unspecified)
board.cache_hierarchy.ruby_system.m_outstandReqHistSeqr::gmean     1.187453                       (Unspecified)
board.cache_hierarchy.ruby_system.m_outstandReqHistSeqr::stdev     0.539372                       (Unspecified)
board.cache_hierarchy.ruby_system.m_outstandReqHistSeqr |    13477147     77.39%     77.39% |     3824040     21.96%     99.35% |      111587      0.64%    100.00% |         583      0.00%    100.00% |         102      0.00%    100.00% |          31      0.00%    100.00% |          14      0.00%    100.00% |           7      0.00%    100.00% |           5      0.00%    100.00% |           0      0.00%    100.00% (Unspecified)
board.cache_hierarchy.ruby_system.m_outstandReqHistSeqr::total     17413516                       (Unspecified)
board.cache_hierarchy.ruby_system.m_latencyHistSeqr::bucket_size          128                       (Unspecified)
board.cache_hierarchy.ruby_system.m_latencyHistSeqr::max_bucket         1279                       (Unspecified)
board.cache_hierarchy.ruby_system.m_latencyHistSeqr::samples     17489044                       (Unspecified)
board.cache_hierarchy.ruby_system.m_latencyHistSeqr::mean     1.077066                       (Unspecified)
board.cache_hierarchy.ruby_system.m_latencyHistSeqr::gmean     1.012663                       (Unspecified)
board.cache_hierarchy.ruby_system.m_latencyHistSeqr::stdev     2.705817                       (Unspecified)
board.cache_hierarchy.ruby_system.m_latencyHistSeqr |    17485882     99.98%     99.98% |        3111      0.02%    100.00% |          11      0.00%    100.00% |           1      0.00%    100.00% |           4      0.00%    100.00% |           4      0.00%    100.00% |           4      0.00%    100.00% |           3      0.00%    100.00% |           4      0.00%    100.00% |          20      0.00%    100.00% (Unspecified)
board.cache_hierarchy.ruby_system.m_latencyHistSeqr::total     17489044                       (Unspecified)
board.cache_hierarchy.ruby_system.m_hitLatencyHistSeqr::bucket_size           16                       (Unspecified)
board.cache_hierarchy.ruby_system.m_hitLatencyHistSeqr::max_bucket          159                       (Unspecified)
board.cache_hierarchy.ruby_system.m_hitLatencyHistSeqr::samples     17428420                       (Unspecified)
board.cache_hierarchy.ruby_system.m_hitLatencyHistSeqr::mean     1.004364                       (Unspecified)
board.cache_hierarchy.ruby_system.m_hitLatencyHistSeqr::gmean     1.003012                       (Unspecified)
board.cache_hierarchy.ruby_system.m_hitLatencyHistSeqr::stdev     0.088923                       (Unspecified)
board.cache_hierarchy.ruby_system.m_hitLatencyHistSeqr |    17428415    100.00%    100.00% |           2      0.00%    100.00% |           0      0.00%    100.00% |           0      0.00%    100.00% |           0      0.00%    100.00% |           0      0.00%    100.00% |           0      0.00%    100.00% |           1      0.00%    100.00% |           0      0.00%    100.00% |           2      0.00%    100.00% (Unspecified)
board.cache_hierarchy.ruby_system.m_hitLatencyHistSeqr::total     17428420                       (Unspecified)
board.cache_hierarchy.ruby_system.m_missLatencyHistSeqr::bucket_size          128                       (Unspecified)
board.cache_hierarchy.ruby_system.m_missLatencyHistSeqr::max_bucket         1279                       (Unspecified)
board.cache_hierarchy.ruby_system.m_missLatencyHistSeqr::samples        60624                       (Unspecified)
board.cache_hierarchy.ruby_system.m_missLatencyHistSeqr::mean    21.977831                       (Unspecified)
board.cache_hierarchy.ruby_system.m_missLatencyHistSeqr::gmean    15.889268                       (Unspecified)
board.cache_hierarchy.ruby_system.m_missLatencyHistSeqr::stdev    40.884127                       (Unspecified)
board.cache_hierarchy.ruby_system.m_missLatencyHistSeqr |       57464     94.79%     94.79% |        3109      5.13%     99.92% |          11      0.02%     99.93% |           1      0.00%     99.94% |           4      0.01%     99.94% |           4      0.01%     99.95% |           4      0.01%     99.96% |           3      0.00%     99.96% |           4      0.01%     99.97% |          20      0.03%    100.00% (Unspecified)
board.cache_hierarchy.ruby_system.m_missLatencyHistSeqr::total        60624                       (Unspecified)
board.cache_hierarchy.ruby_system.delayVCHist.vnet_0::bucket_size            4                       # delay histogram for vnet_0 (Unspecified)
board.cache_hierarchy.ruby_system.delayVCHist.vnet_0::max_bucket           39                       # delay histogram for vnet_0 (Unspecified)
board.cache_hierarchy.ruby_system.delayVCHist.vnet_0::samples        97186                       # delay histogram for vnet_0 (Unspecified)
board.cache_hierarchy.ruby_system.delayVCHist.vnet_0::mean     1.522112                       # delay histogram for vnet_0 (Unspecified)
board.cache_hierarchy.ruby_system.delayVCHist.vnet_0::stdev     3.358948                       # delay histogram for vnet_0 (Unspecified)
board.cache_hierarchy.ruby_system.delayVCHist.vnet_0 |       79864     82.18%     82.18% |          83      0.09%     82.26% |       16192     16.66%     98.92% |          64      0.07%     98.99% |         966      0.99%     99.98% |           6      0.01%     99.99% |          10      0.01%    100.00% |           0      0.00%    100.00% |           1      0.00%    100.00% |           0      0.00%    100.00% # delay histogram for vnet_0 (Unspecified)
board.cache_hierarchy.ruby_system.delayVCHist.vnet_0::total        97186                       # delay histogram for vnet_0 (Unspecified)
board.cache_hierarchy.ruby_system.delayVCHist.vnet_1::bucket_size            2                       # delay histogram for vnet_1 (Unspecified)
board.cache_hierarchy.ruby_system.delayVCHist.vnet_1::max_bucket           19                       # delay histogram for vnet_1 (Unspecified)
board.cache_hierarchy.ruby_system.delayVCHist.vnet_1::samples        81945                       # delay histogram for vnet_1 (Unspecified)
board.cache_hierarchy.ruby_system.delayVCHist.vnet_1::mean     0.182806                       # delay histogram for vnet_1 (Unspecified)
board.cache_hierarchy.ruby_system.delayVCHist.vnet_1::stdev     1.148400                       # delay histogram for vnet_1 (Unspecified)
board.cache_hierarchy.ruby_system.delayVCHist.vnet_1 |       79874     97.47%     97.47% |          18      0.02%     97.49% |           5      0.01%     97.50% |         733      0.89%     98.40% |        1312      1.60%    100.00% |           3      0.00%    100.00% |           0      0.00%    100.00% |           0      0.00%    100.00% |           0      0.00%    100.00% |           0      0.00%    100.00% # delay histogram for vnet_1 (Unspecified)
board.cache_hierarchy.ruby_system.delayVCHist.vnet_1::total        81945                       # delay histogram for vnet_1 (Unspecified)
board.cache_hierarchy.ruby_system.delayVCHist.vnet_2::bucket_size            1                       # delay histogram for vnet_2 (Unspecified)
board.cache_hierarchy.ruby_system.delayVCHist.vnet_2::max_bucket            9                       # delay histogram for vnet_2 (Unspecified)
board.cache_hierarchy.ruby_system.delayVCHist.vnet_2::samples            3                       # delay histogram for vnet_2 (Unspecified)
board.cache_hierarchy.ruby_system.delayVCHist.vnet_2 |           3    100.00%    100.00% |           0      0.00%    100.00% |           0      0.00%    100.00% |           0      0.00%    100.00% |           0      0.00%    100.00% |           0      0.00%    100.00% |           0      0.00%    100.00% |           0      0.00%    100.00% |           0      0.00%    100.00% |           0      0.00%    100.00% # delay histogram for vnet_2 (Unspecified)
board.cache_hierarchy.ruby_system.delayVCHist.vnet_2::total            3                       # delay histogram for vnet_2 (Unspecified)
board.cache_hierarchy.ruby_system.Directory_Controller.Fetch         3160      0.00%      0.00% (Unspecified)
board.cache_hierarchy.ruby_system.Directory_Controller.Data            2      0.00%      0.00% (Unspecified)
board.cache_hierarchy.ruby_system.Directory_Controller.Memory_Data         3160      0.00%      0.00% (Unspecified)
board.cache_hierarchy.ruby_system.Directory_Controller.Memory_Ack            2      0.00%      0.00% (Unspecified)
board.cache_hierarchy.ruby_system.Directory_Controller.CleanReplacement            3      0.00%      0.00% (Unspecified)
board.cache_hierarchy.ruby_system.Directory_Controller.I.Fetch         3160      0.00%      0.00% (Unspecified)
board.cache_hierarchy.ruby_system.Directory_Controller.M.Data            2      0.00%      0.00% (Unspecified)
board.cache_hierarchy.ruby_system.Directory_Controller.M.CleanReplacement            3      0.00%      0.00% (Unspecified)
board.cache_hierarchy.ruby_system.Directory_Controller.IM.Memory_Data         3160      0.00%      0.00% (Unspecified)
board.cache_hierarchy.ruby_system.Directory_Controller.MI.Memory_Ack            2      0.00%      0.00% (Unspecified)
board.cache_hierarchy.ruby_system.L1Cache_Controller.Load      7038245      0.00%      0.00% (Unspecified)
board.cache_hierarchy.ruby_system.L1Cache_Controller.Ifetch      5249292      0.00%      0.00% (Unspecified)
board.cache_hierarchy.ruby_system.L1Cache_Controller.Store      5201514      0.00%      0.00% (Unspecified)
board.cache_hierarchy.ruby_system.L1Cache_Controller.Inv            3      0.00%      0.00% (Unspecified)
board.cache_hierarchy.ruby_system.L1Cache_Controller.L1_Replacement        60111      0.00%      0.00% (Unspecified)
board.cache_hierarchy.ruby_system.L1Cache_Controller.Data_Exclusive         8319      0.00%      0.00% (Unspecified)
board.cache_hierarchy.ruby_system.L1Cache_Controller.Data_all_Acks        52303      0.00%      0.00% (Unspecified)
board.cache_hierarchy.ruby_system.L1Cache_Controller.Ack_all            2      0.00%      0.00% (Unspecified)
board.cache_hierarchy.ruby_system.L1Cache_Controller.WB_Ack        18153      0.00%      0.00% (Unspecified)
board.cache_hierarchy.ruby_system.L1Cache_Controller.NP.Load         8323      0.00%      0.00% (Unspecified)
board.cache_hierarchy.ruby_system.L1Cache_Controller.NP.Ifetch        42212      0.00%      0.00% (Unspecified)
board.cache_hierarchy.ruby_system.L1Cache_Controller.NP.Store        10088      0.00%      0.00% (Unspecified)
board.cache_hierarchy.ruby_system.L1Cache_Controller.NP.Inv            3      0.00%      0.00% (Unspecified)
board.cache_hierarchy.ruby_system.L1Cache_Controller.S.Load           39      0.00%      0.00% (Unspecified)
board.cache_hierarchy.ruby_system.L1Cache_Controller.S.Ifetch      5207077      0.00%      0.00% (Unspecified)
board.cache_hierarchy.ruby_system.L1Cache_Controller.S.Store            2      0.00%      0.00% (Unspecified)
board.cache_hierarchy.ruby_system.L1Cache_Controller.S.L1_Replacement        41958      0.00%      0.00% (Unspecified)
board.cache_hierarchy.ruby_system.L1Cache_Controller.E.Load      1476252      0.00%      0.00% (Unspecified)
board.cache_hierarchy.ruby_system.L1Cache_Controller.E.Store         6319      0.00%      0.00% (Unspecified)
board.cache_hierarchy.ruby_system.L1Cache_Controller.E.L1_Replacement         1923      0.00%      0.00% (Unspecified)
board.cache_hierarchy.ruby_system.L1Cache_Controller.M.Load      5553628      0.00%      0.00% (Unspecified)
board.cache_hierarchy.ruby_system.L1Cache_Controller.M.Store      5185105      0.00%      0.00% (Unspecified)
board.cache_hierarchy.ruby_system.L1Cache_Controller.M.L1_Replacement        16230      0.00%      0.00% (Unspecified)
board.cache_hierarchy.ruby_system.L1Cache_Controller.IS.Data_Exclusive         8319      0.00%      0.00% (Unspecified)
board.cache_hierarchy.ruby_system.L1Cache_Controller.IS.Data_all_Acks        42215      0.00%      0.00% (Unspecified)
board.cache_hierarchy.ruby_system.L1Cache_Controller.IM.Data_all_Acks        10088      0.00%      0.00% (Unspecified)
board.cache_hierarchy.ruby_system.L1Cache_Controller.SM.Ack_all            2      0.00%      0.00% (Unspecified)
board.cache_hierarchy.ruby_system.L1Cache_Controller.M_I.Load            3      0.00%      0.00% (Unspecified)
board.cache_hierarchy.ruby_system.L1Cache_Controller.M_I.Ifetch            3      0.00%      0.00% (Unspecified)
board.cache_hierarchy.ruby_system.L1Cache_Controller.M_I.WB_Ack        18153      0.00%      0.00% (Unspecified)
board.cache_hierarchy.ruby_system.L2Cache_Controller.L1_GET_INSTR        42211      0.00%      0.00% (Unspecified)
board.cache_hierarchy.ruby_system.L2Cache_Controller.L1_GETS         8323      0.00%      0.00% (Unspecified)
board.cache_hierarchy.ruby_system.L2Cache_Controller.L1_GETX        10088      0.00%      0.00% (Unspecified)
board.cache_hierarchy.ruby_system.L2Cache_Controller.L1_UPGRADE            2      0.00%      0.00% (Unspecified)
board.cache_hierarchy.ruby_system.L2Cache_Controller.L1_PUTX        18153      0.00%      0.00% (Unspecified)
board.cache_hierarchy.ruby_system.L2Cache_Controller.L2_Replacement            2      0.00%      0.00% (Unspecified)
board.cache_hierarchy.ruby_system.L2Cache_Controller.L2_Replacement_clean            3      0.00%      0.00% (Unspecified)
board.cache_hierarchy.ruby_system.L2Cache_Controller.Mem_Data         3160      0.00%      0.00% (Unspecified)
board.cache_hierarchy.ruby_system.L2Cache_Controller.Mem_Ack            5      0.00%      0.00% (Unspecified)
board.cache_hierarchy.ruby_system.L2Cache_Controller.Ack_all            3      0.00%      0.00% (Unspecified)
board.cache_hierarchy.ruby_system.L2Cache_Controller.Exclusive_Unblock        18409      0.00%      0.00% (Unspecified)
board.cache_hierarchy.ruby_system.L2Cache_Controller.NP.L1_GET_INSTR         1006      0.00%      0.00% (Unspecified)
board.cache_hierarchy.ruby_system.L2Cache_Controller.NP.L1_GETS         1096      0.00%      0.00% (Unspecified)
board.cache_hierarchy.ruby_system.L2Cache_Controller.NP.L1_GETX         1058      0.00%      0.00% (Unspecified)
board.cache_hierarchy.ruby_system.L2Cache_Controller.SS.L1_GET_INSTR        41200      0.00%      0.00% (Unspecified)
board.cache_hierarchy.ruby_system.L2Cache_Controller.SS.L1_GETS            4      0.00%      0.00% (Unspecified)
board.cache_hierarchy.ruby_system.L2Cache_Controller.SS.L1_GETX            1      0.00%      0.00% (Unspecified)
board.cache_hierarchy.ruby_system.L2Cache_Controller.SS.L1_UPGRADE            2      0.00%      0.00% (Unspecified)
board.cache_hierarchy.ruby_system.L2Cache_Controller.SS.L2_Replacement_clean            3      0.00%      0.00% (Unspecified)
board.cache_hierarchy.ruby_system.L2Cache_Controller.M.L1_GET_INSTR            5      0.00%      0.00% (Unspecified)
board.cache_hierarchy.ruby_system.L2Cache_Controller.M.L1_GETS         7223      0.00%      0.00% (Unspecified)
board.cache_hierarchy.ruby_system.L2Cache_Controller.M.L1_GETX         9029      0.00%      0.00% (Unspecified)
board.cache_hierarchy.ruby_system.L2Cache_Controller.M.L2_Replacement            2      0.00%      0.00% (Unspecified)
board.cache_hierarchy.ruby_system.L2Cache_Controller.MT.L1_PUTX        18153      0.00%      0.00% (Unspecified)
board.cache_hierarchy.ruby_system.L2Cache_Controller.M_I.Mem_Ack            5      0.00%      0.00% (Unspecified)
board.cache_hierarchy.ruby_system.L2Cache_Controller.I_I.Ack_all            3      0.00%      0.00% (Unspecified)
board.cache_hierarchy.ruby_system.L2Cache_Controller.ISS.Mem_Data         1096      0.00%      0.00% (Unspecified)
board.cache_hierarchy.ruby_system.L2Cache_Controller.IS.Mem_Data         1006      0.00%      0.00% (Unspecified)
board.cache_hierarchy.ruby_system.L2Cache_Controller.IM.Mem_Data         1058      0.00%      0.00% (Unspecified)
board.cache_hierarchy.ruby_system.L2Cache_Controller.SS_MB.Exclusive_Unblock            3      0.00%      0.00% (Unspecified)
board.cache_hierarchy.ruby_system.L2Cache_Controller.MT_MB.Exclusive_Unblock        18406      0.00%      0.00% (Unspecified)
board.cache_hierarchy.ruby_system.RequestType.LD.latency_hist_seqr::bucket_size          128                       (Unspecified)
board.cache_hierarchy.ruby_system.RequestType.LD.latency_hist_seqr::max_bucket         1279                       (Unspecified)
board.cache_hierarchy.ruby_system.RequestType.LD.latency_hist_seqr::samples      7038242                       (Unspecified)
board.cache_hierarchy.ruby_system.RequestType.LD.latency_hist_seqr::mean     1.042942                       (Unspecified)
board.cache_hierarchy.ruby_system.RequestType.LD.latency_hist_seqr::gmean     1.003730                       (Unspecified)
board.cache_hierarchy.ruby_system.RequestType.LD.latency_hist_seqr::stdev     2.581049                       (Unspecified)
board.cache_hierarchy.ruby_system.RequestType.LD.latency_hist_seqr |     7037146     99.98%     99.98% |        1071      0.02%    100.00% |           6      0.00%    100.00% |           1      0.00%    100.00% |           1      0.00%    100.00% |           3      0.00%    100.00% |           2      0.00%    100.00% |           2      0.00%    100.00% |           4      0.00%    100.00% |           6      0.00%    100.00% (Unspecified)
board.cache_hierarchy.ruby_system.RequestType.LD.latency_hist_seqr::total      7038242                       (Unspecified)
board.cache_hierarchy.ruby_system.RequestType.LD.hit_latency_hist_seqr::bucket_size            1                       (Unspecified)
board.cache_hierarchy.ruby_system.RequestType.LD.hit_latency_hist_seqr::max_bucket            9                       (Unspecified)
board.cache_hierarchy.ruby_system.RequestType.LD.hit_latency_hist_seqr::samples      7029919                       (Unspecified)
board.cache_hierarchy.ruby_system.RequestType.LD.hit_latency_hist_seqr::mean     1.000009                       (Unspecified)
board.cache_hierarchy.ruby_system.RequestType.LD.hit_latency_hist_seqr::gmean     1.000006                       (Unspecified)
board.cache_hierarchy.ruby_system.RequestType.LD.hit_latency_hist_seqr::stdev     0.002946                       (Unspecified)
board.cache_hierarchy.ruby_system.RequestType.LD.hit_latency_hist_seqr |           0      0.00%      0.00% |     7029858    100.00%    100.00% |          61      0.00%    100.00% |           0      0.00%    100.00% |           0      0.00%    100.00% |           0      0.00%    100.00% |           0      0.00%    100.00% |           0      0.00%    100.00% |           0      0.00%    100.00% |           0      0.00%    100.00% (Unspecified)
board.cache_hierarchy.ruby_system.RequestType.LD.hit_latency_hist_seqr::total      7029919                       (Unspecified)
board.cache_hierarchy.ruby_system.RequestType.LD.miss_latency_hist_seqr::bucket_size          128                       (Unspecified)
board.cache_hierarchy.ruby_system.RequestType.LD.miss_latency_hist_seqr::max_bucket         1279                       (Unspecified)
board.cache_hierarchy.ruby_system.RequestType.LD.miss_latency_hist_seqr::samples         8323                       (Unspecified)
board.cache_hierarchy.ruby_system.RequestType.LD.miss_latency_hist_seqr::mean    37.306140                       (Unspecified)
board.cache_hierarchy.ruby_system.RequestType.LD.miss_latency_hist_seqr::gmean    23.187007                       (Unspecified)
board.cache_hierarchy.ruby_system.RequestType.LD.miss_latency_hist_seqr::stdev    65.707047                       (Unspecified)
board.cache_hierarchy.ruby_system.RequestType.LD.miss_latency_hist_seqr |        7227     86.83%     86.83% |        1071     12.87%     99.70% |           6      0.07%     99.77% |           1      0.01%     99.78% |           1      0.01%     99.80% |           3      0.04%     99.83% |           2      0.02%     99.86% |           2      0.02%     99.88% |           4      0.05%     99.93% |           6      0.07%    100.00% (Unspecified)
board.cache_hierarchy.ruby_system.RequestType.LD.miss_latency_hist_seqr::total         8323                       (Unspecified)
board.cache_hierarchy.ruby_system.RequestType.ST.latency_hist_seqr::bucket_size          128                       (Unspecified)
board.cache_hierarchy.ruby_system.RequestType.ST.latency_hist_seqr::max_bucket         1279                       (Unspecified)
board.cache_hierarchy.ruby_system.RequestType.ST.latency_hist_seqr::samples      5011525                       (Unspecified)
board.cache_hierarchy.ruby_system.RequestType.ST.latency_hist_seqr::mean     1.076248                       (Unspecified)
board.cache_hierarchy.ruby_system.RequestType.ST.latency_hist_seqr::gmean     1.015529                       (Unspecified)
board.cache_hierarchy.ruby_system.RequestType.ST.latency_hist_seqr::stdev     2.792208                       (Unspecified)
board.cache_hierarchy.ruby_system.RequestType.ST.latency_hist_seqr |     5010472     99.98%     99.98% |        1040      0.02%    100.00% |           2      0.00%    100.00% |           0      0.00%    100.00% |           2      0.00%    100.00% |           1      0.00%    100.00% |           2      0.00%    100.00% |           1      0.00%    100.00% |           0      0.00%    100.00% |           5      0.00%    100.00% (Unspecified)
board.cache_hierarchy.ruby_system.RequestType.ST.latency_hist_seqr::total      5011525                       (Unspecified)
board.cache_hierarchy.ruby_system.RequestType.ST.hit_latency_hist_seqr::bucket_size            4                       (Unspecified)
board.cache_hierarchy.ruby_system.RequestType.ST.hit_latency_hist_seqr::max_bucket           39                       (Unspecified)
board.cache_hierarchy.ruby_system.RequestType.ST.hit_latency_hist_seqr::samples      5001445                       (Unspecified)
board.cache_hierarchy.ruby_system.RequestType.ST.hit_latency_hist_seqr::mean     1.013422                       (Unspecified)
board.cache_hierarchy.ruby_system.RequestType.ST.hit_latency_hist_seqr::gmean     1.009342                       (Unspecified)
board.cache_hierarchy.ruby_system.RequestType.ST.hit_latency_hist_seqr::stdev     0.115957                       (Unspecified)
board.cache_hierarchy.ruby_system.RequestType.ST.hit_latency_hist_seqr |     5001443    100.00%    100.00% |           0      0.00%    100.00% |           0      0.00%    100.00% |           0      0.00%    100.00% |           1      0.00%    100.00% |           0      0.00%    100.00% |           0      0.00%    100.00% |           1      0.00%    100.00% |           0      0.00%    100.00% |           0      0.00%    100.00% (Unspecified)
board.cache_hierarchy.ruby_system.RequestType.ST.hit_latency_hist_seqr::total      5001445                       (Unspecified)
board.cache_hierarchy.ruby_system.RequestType.ST.miss_latency_hist_seqr::bucket_size          128                       (Unspecified)
board.cache_hierarchy.ruby_system.RequestType.ST.miss_latency_hist_seqr::max_bucket         1279                       (Unspecified)
board.cache_hierarchy.ruby_system.RequestType.ST.miss_latency_hist_seqr::samples        10080                       (Unspecified)
board.cache_hierarchy.ruby_system.RequestType.ST.miss_latency_hist_seqr::mean    32.249008                       (Unspecified)
board.cache_hierarchy.ruby_system.RequestType.ST.miss_latency_hist_seqr::gmean    21.065786                       (Unspecified)
board.cache_hierarchy.ruby_system.RequestType.ST.miss_latency_hist_seqr::stdev    53.815456                       (Unspecified)
board.cache_hierarchy.ruby_system.RequestType.ST.miss_latency_hist_seqr |        9027     89.55%     89.55% |        1040     10.32%     99.87% |           2      0.02%     99.89% |           0      0.00%     99.89% |           2      0.02%     99.91% |           1      0.01%     99.92% |           2      0.02%     99.94% |           1      0.01%     99.95% |           0      0.00%     99.95% |           5      0.05%    100.00% (Unspecified)
board.cache_hierarchy.ruby_system.RequestType.ST.miss_latency_hist_seqr::total        10080                       (Unspecified)
board.cache_hierarchy.ruby_system.RequestType.IFETCH.latency_hist_seqr::bucket_size          128                       (Unspecified)
board.cache_hierarchy.ruby_system.RequestType.IFETCH.latency_hist_seqr::max_bucket         1279                       (Unspecified)
board.cache_hierarchy.ruby_system.RequestType.IFETCH.latency_hist_seqr::samples      5249288                       (Unspecified)
board.cache_hierarchy.ruby_system.RequestType.IFETCH.latency_hist_seqr::mean     1.124524                       (Unspecified)
board.cache_hierarchy.ruby_system.RequestType.IFETCH.latency_hist_seqr::gmean     1.021320                       (Unspecified)
board.cache_hierarchy.ruby_system.RequestType.IFETCH.latency_hist_seqr::stdev     2.823297                       (Unspecified)
board.cache_hierarchy.ruby_system.RequestType.IFETCH.latency_hist_seqr |     5248282     99.98%     99.98% |         993      0.02%    100.00% |           3      0.00%    100.00% |           0      0.00%    100.00% |           1      0.00%    100.00% |           0      0.00%    100.00% |           0      0.00%    100.00% |           0      0.00%    100.00% |           0      0.00%    100.00% |           9      0.00%    100.00% (Unspecified)
board.cache_hierarchy.ruby_system.RequestType.IFETCH.latency_hist_seqr::total      5249288                       (Unspecified)
board.cache_hierarchy.ruby_system.RequestType.IFETCH.hit_latency_hist_seqr::bucket_size            1                       (Unspecified)
board.cache_hierarchy.ruby_system.RequestType.IFETCH.hit_latency_hist_seqr::max_bucket            9                       (Unspecified)
board.cache_hierarchy.ruby_system.RequestType.IFETCH.hit_latency_hist_seqr::samples      5207077                       (Unspecified)
board.cache_hierarchy.ruby_system.RequestType.IFETCH.hit_latency_hist_seqr::mean            1                       (Unspecified)
board.cache_hierarchy.ruby_system.RequestType.IFETCH.hit_latency_hist_seqr::gmean            1                       (Unspecified)
board.cache_hierarchy.ruby_system.RequestType.IFETCH.hit_latency_hist_seqr |           0      0.00%      0.00% |     5207077    100.00%    100.00% |           0      0.00%    100.00% |           0      0.00%    100.00% |           0      0.00%    100.00% |           0      0.00%    100.00% |           0      0.00%    100.00% |           0      0.00%    100.00% |           0      0.00%    100.00% |           0      0.00%    100.00% (Unspecified)
board.cache_hierarchy.ruby_system.RequestType.IFETCH.hit_latency_hist_seqr::total      5207077                       (Unspecified)
board.cache_hierarchy.ruby_system.RequestType.IFETCH.miss_latency_hist_seqr::bucket_size          128                       (Unspecified)
board.cache_hierarchy.ruby_system.RequestType.IFETCH.miss_latency_hist_seqr::max_bucket         1279                       (Unspecified)
board.cache_hierarchy.ruby_system.RequestType.IFETCH.miss_latency_hist_seqr::samples        42211                       (Unspecified)
board.cache_hierarchy.ruby_system.RequestType.IFETCH.miss_latency_hist_seqr::mean    16.485608                       (Unspecified)
board.cache_hierarchy.ruby_system.RequestType.IFETCH.miss_latency_hist_seqr::gmean    13.783872                       (Unspecified)
board.cache_hierarchy.ruby_system.RequestType.IFETCH.miss_latency_hist_seqr::stdev    27.448177                       (Unspecified)
board.cache_hierarchy.ruby_system.RequestType.IFETCH.miss_latency_hist_seqr |       41205     97.62%     97.62% |         993      2.35%     99.97% |           3      0.01%     99.98% |           0      0.00%     99.98% |           1      0.00%     99.98% |           0      0.00%     99.98% |           0      0.00%     99.98% |           0      0.00%     99.98% |           0      0.00%     99.98% |           9      0.02%    100.00% (Unspecified)
board.cache_hierarchy.ruby_system.RequestType.IFETCH.miss_latency_hist_seqr::total        42211                       (Unspecified)
board.cache_hierarchy.ruby_system.RequestType.RMW_Read.latency_hist_seqr::bucket_size           32                       (Unspecified)
board.cache_hierarchy.ruby_system.RequestType.RMW_Read.latency_hist_seqr::max_bucket          319                       (Unspecified)
board.cache_hierarchy.ruby_system.RequestType.RMW_Read.latency_hist_seqr::samples        58801                       (Unspecified)
board.cache_hierarchy.ruby_system.RequestType.RMW_Read.latency_hist_seqr::mean     1.161715                       (Unspecified)
board.cache_hierarchy.ruby_system.RequestType.RMW_Read.latency_hist_seqr::gmean     1.105350                       (Unspecified)
board.cache_hierarchy.ruby_system.RequestType.RMW_Read.latency_hist_seqr::stdev     1.682156                       (Unspecified)
board.cache_hierarchy.ruby_system.RequestType.RMW_Read.latency_hist_seqr |       58794     99.99%     99.99% |           0      0.00%     99.99% |           0      0.00%     99.99% |           1      0.00%     99.99% |           5      0.01%    100.00% |           1      0.00%    100.00% |           0      0.00%    100.00% |           0      0.00%    100.00% |           0      0.00%    100.00% |           0      0.00%    100.00% (Unspecified)
board.cache_hierarchy.ruby_system.RequestType.RMW_Read.latency_hist_seqr::total        58801                       (Unspecified)
board.cache_hierarchy.ruby_system.RequestType.RMW_Read.hit_latency_hist_seqr::bucket_size           16                       (Unspecified)
board.cache_hierarchy.ruby_system.RequestType.RMW_Read.hit_latency_hist_seqr::max_bucket          159                       (Unspecified)
board.cache_hierarchy.ruby_system.RequestType.RMW_Read.hit_latency_hist_seqr::samples        58796                       (Unspecified)
board.cache_hierarchy.ruby_system.RequestType.RMW_Read.hit_latency_hist_seqr::mean     1.150844                       (Unspecified)
board.cache_hierarchy.ruby_system.RequestType.RMW_Read.hit_latency_hist_seqr::gmean     1.104923                       (Unspecified)
board.cache_hierarchy.ruby_system.RequestType.RMW_Read.hit_latency_hist_seqr::stdev     1.080131                       (Unspecified)
board.cache_hierarchy.ruby_system.RequestType.RMW_Read.hit_latency_hist_seqr |       58793     99.99%     99.99% |           0      0.00%     99.99% |           0      0.00%     99.99% |           0      0.00%     99.99% |           0      0.00%     99.99% |           0      0.00%     99.99% |           0      0.00%     99.99% |           1      0.00%    100.00% |           0      0.00%    100.00% |           2      0.00%    100.00% (Unspecified)
board.cache_hierarchy.ruby_system.RequestType.RMW_Read.hit_latency_hist_seqr::total        58796                       (Unspecified)
board.cache_hierarchy.ruby_system.RequestType.RMW_Read.miss_latency_hist_seqr::bucket_size           32                       (Unspecified)
board.cache_hierarchy.ruby_system.RequestType.RMW_Read.miss_latency_hist_seqr::max_bucket          319                       (Unspecified)
board.cache_hierarchy.ruby_system.RequestType.RMW_Read.miss_latency_hist_seqr::samples            5                       (Unspecified)
board.cache_hierarchy.ruby_system.RequestType.RMW_Read.miss_latency_hist_seqr::mean          129                       (Unspecified)
board.cache_hierarchy.ruby_system.RequestType.RMW_Read.miss_latency_hist_seqr::gmean   103.086817                       (Unspecified)
board.cache_hierarchy.ruby_system.RequestType.RMW_Read.miss_latency_hist_seqr::stdev    63.379808                       (Unspecified)
board.cache_hierarchy.ruby_system.RequestType.RMW_Read.miss_latency_hist_seqr |           1     20.00%     20.00% |           0      0.00%     20.00% |           0      0.00%     20.00% |           0      0.00%     20.00% |           3     60.00%     80.00% |           1     20.00%    100.00% |           0      0.00%    100.00% |           0      0.00%    100.00% |           0      0.00%    100.00% |           0      0.00%    100.00% (Unspecified)
board.cache_hierarchy.ruby_system.RequestType.RMW_Read.miss_latency_hist_seqr::total            5                       (Unspecified)
board.cache_hierarchy.ruby_system.RequestType.Locked_RMW_Read.latency_hist_seqr::bucket_size           32                       (Unspecified)
board.cache_hierarchy.ruby_system.RequestType.Locked_RMW_Read.latency_hist_seqr::max_bucket          319                       (Unspecified)
board.cache_hierarchy.ruby_system.RequestType.Locked_RMW_Read.latency_hist_seqr::samples        65594                       (Unspecified)
board.cache_hierarchy.ruby_system.RequestType.Locked_RMW_Read.latency_hist_seqr::mean     1.004436                       (Unspecified)
board.cache_hierarchy.ruby_system.RequestType.Locked_RMW_Read.latency_hist_seqr::gmean     1.000248                       (Unspecified)
board.cache_hierarchy.ruby_system.RequestType.Locked_RMW_Read.latency_hist_seqr::stdev     0.924181                       (Unspecified)
board.cache_hierarchy.ruby_system.RequestType.Locked_RMW_Read.latency_hist_seqr |       65593    100.00%    100.00% |           0      0.00%    100.00% |           0      0.00%    100.00% |           0      0.00%    100.00% |           0      0.00%    100.00% |           0      0.00%    100.00% |           0      0.00%    100.00% |           1      0.00%    100.00% |           0      0.00%    100.00% |           0      0.00%    100.00% (Unspecified)
board.cache_hierarchy.ruby_system.RequestType.Locked_RMW_Read.latency_hist_seqr::total        65594                       (Unspecified)
board.cache_hierarchy.ruby_system.RequestType.Locked_RMW_Read.hit_latency_hist_seqr::bucket_size            1                       (Unspecified)
board.cache_hierarchy.ruby_system.RequestType.Locked_RMW_Read.hit_latency_hist_seqr::max_bucket            9                       (Unspecified)
board.cache_hierarchy.ruby_system.RequestType.Locked_RMW_Read.hit_latency_hist_seqr::samples        65589                       (Unspecified)
board.cache_hierarchy.ruby_system.RequestType.Locked_RMW_Read.hit_latency_hist_seqr::mean            1                       (Unspecified)
board.cache_hierarchy.ruby_system.RequestType.Locked_RMW_Read.hit_latency_hist_seqr::gmean            1                       (Unspecified)
board.cache_hierarchy.ruby_system.RequestType.Locked_RMW_Read.hit_latency_hist_seqr |           0      0.00%      0.00% |       65589    100.00%    100.00% |           0      0.00%    100.00% |           0      0.00%    100.00% |           0      0.00%    100.00% |           0      0.00%    100.00% |           0      0.00%    100.00% |           0      0.00%    100.00% |           0      0.00%    100.00% |           0      0.00%    100.00% (Unspecified)
board.cache_hierarchy.ruby_system.RequestType.Locked_RMW_Read.hit_latency_hist_seqr::total        65589                       (Unspecified)
board.cache_hierarchy.ruby_system.RequestType.Locked_RMW_Read.miss_latency_hist_seqr::bucket_size           32                       (Unspecified)
board.cache_hierarchy.ruby_system.RequestType.Locked_RMW_Read.miss_latency_hist_seqr::max_bucket          319                       (Unspecified)
board.cache_hierarchy.ruby_system.RequestType.Locked_RMW_Read.miss_latency_hist_seqr::samples            5                       (Unspecified)
board.cache_hierarchy.ruby_system.RequestType.Locked_RMW_Read.miss_latency_hist_seqr::mean    59.200000                       (Unspecified)
board.cache_hierarchy.ruby_system.RequestType.Locked_RMW_Read.miss_latency_hist_seqr::gmean    25.842785                       (Unspecified)
board.cache_hierarchy.ruby_system.RequestType.Locked_RMW_Read.miss_latency_hist_seqr::stdev    98.854438                       (Unspecified)
board.cache_hierarchy.ruby_system.RequestType.Locked_RMW_Read.miss_latency_hist_seqr |           4     80.00%     80.00% |           0      0.00%     80.00% |           0      0.00%     80.00% |           0      0.00%     80.00% |           0      0.00%     80.00% |           0      0.00%     80.00% |           0      0.00%     80.00% |           1     20.00%    100.00% |           0      0.00%    100.00% |           0      0.00%    100.00% (Unspecified)
board.cache_hierarchy.ruby_system.RequestType.Locked_RMW_Read.miss_latency_hist_seqr::total            5                       (Unspecified)
board.cache_hierarchy.ruby_system.RequestType.Locked_RMW_Write.latency_hist_seqr::bucket_size            1                       (Unspecified)
board.cache_hierarchy.ruby_system.RequestType.Locked_RMW_Write.latency_hist_seqr::max_bucket            9                       (Unspecified)
board.cache_hierarchy.ruby_system.RequestType.Locked_RMW_Write.latency_hist_seqr::samples        65594                       (Unspecified)
board.cache_hierarchy.ruby_system.RequestType.Locked_RMW_Write.latency_hist_seqr::mean            1                       (Unspecified)
board.cache_hierarchy.ruby_system.RequestType.Locked_RMW_Write.latency_hist_seqr::gmean            1                       (Unspecified)
board.cache_hierarchy.ruby_system.RequestType.Locked_RMW_Write.latency_hist_seqr |           0      0.00%      0.00% |       65594    100.00%    100.00% |           0      0.00%    100.00% |           0      0.00%    100.00% |           0      0.00%    100.00% |           0      0.00%    100.00% |           0      0.00%    100.00% |           0      0.00%    100.00% |           0      0.00%    100.00% |           0      0.00%    100.00% (Unspecified)
board.cache_hierarchy.ruby_system.RequestType.Locked_RMW_Write.latency_hist_seqr::total        65594                       (Unspecified)
board.cache_hierarchy.ruby_system.RequestType.Locked_RMW_Write.hit_latency_hist_seqr::bucket_size            1                       (Unspecified)
board.cache_hierarchy.ruby_system.RequestType.Locked_RMW_Write.hit_latency_hist_seqr::max_bucket            9                       (Unspecified)
board.cache_hierarchy.ruby_system.RequestType.Locked_RMW_Write.hit_latency_hist_seqr::samples        65594                       (Unspecified)
board.cache_hierarchy.ruby_system.RequestType.Locked_RMW_Write.hit_latency_hist_seqr::mean            1                       (Unspecified)
board.cache_hierarchy.ruby_system.RequestType.Locked_RMW_Write.hit_latency_hist_seqr::gmean            1                       (Unspecified)
board.cache_hierarchy.ruby_system.RequestType.Locked_RMW_Write.hit_latency_hist_seqr |           0      0.00%      0.00% |       65594    100.00%    100.00% |           0      0.00%    100.00% |           0      0.00%    100.00% |           0      0.00%    100.00% |           0      0.00%    100.00% |           0      0.00%    100.00% |           0      0.00%    100.00% |           0      0.00%    100.00% |           0      0.00%    100.00% (Unspecified)
board.cache_hierarchy.ruby_system.RequestType.Locked_RMW_Write.hit_latency_hist_seqr::total        65594                       (Unspecified)
board.cache_hierarchy.ruby_system.directory_controllers.power_state.pwrStateResidencyTicks::UNDEFINED   8916774300                       # Cumulative time (in ticks) in various power states (Tick)
board.cache_hierarchy.ruby_system.directory_controllers.requestToDir.m_msg_count         3160                       # Number of messages passed the buffer (Count)
board.cache_hierarchy.ruby_system.directory_controllers.requestToDir.m_buf_msgs     0.000118                       # Average number of messages in buffer ((Count/Tick))
board.cache_hierarchy.ruby_system.directory_controllers.requestToMemory.m_msg_count         3162                       # Number of messages passed the buffer (Count)
board.cache_hierarchy.ruby_system.directory_controllers.requestToMemory.m_buf_msgs     0.000119                       # Average number of messages in buffer ((Count/Tick))
board.cache_hierarchy.ruby_system.directory_controllers.requestToMemory.m_stall_time         6327                       # Total number of ticks messages were stalled in this buffer (Tick)
board.cache_hierarchy.ruby_system.directory_controllers.requestToMemory.m_avg_stall_time     2.000949                       # Average stall ticks per message ((Tick/Count))
board.cache_hierarchy.ruby_system.directory_controllers.responseFromDir.m_msg_count         3165                       # Number of messages passed the buffer (Count)
board.cache_hierarchy.ruby_system.directory_controllers.responseFromDir.m_buf_msgs     0.000118                       # Average number of messages in buffer ((Count/Tick))
board.cache_hierarchy.ruby_system.directory_controllers.responseFromMemory.m_msg_count         3162                       # Number of messages passed the buffer (Count)
board.cache_hierarchy.ruby_system.directory_controllers.responseFromMemory.m_buf_msgs     0.000181                       # Average number of messages in buffer ((Count/Tick))
board.cache_hierarchy.ruby_system.directory_controllers.responseToDir.m_msg_count            5                       # Number of messages passed the buffer (Count)
board.cache_hierarchy.ruby_system.directory_controllers.responseToDir.m_buf_msgs     0.000000                       # Average number of messages in buffer ((Count/Tick))
board.cache_hierarchy.ruby_system.l1_controllers.fullyBusyCycles        20988                       # cycles for which number of transistions == max transitions (Unspecified)
board.cache_hierarchy.ruby_system.l1_controllers.delayHistogram::samples        78780                       # delay_histogram (Unspecified)
board.cache_hierarchy.ruby_system.l1_controllers.delayHistogram::mean     0.190150                       # delay_histogram (Unspecified)
board.cache_hierarchy.ruby_system.l1_controllers.delayHistogram::stdev     1.170645                       # delay_histogram (Unspecified)
board.cache_hierarchy.ruby_system.l1_controllers.delayHistogram::0-1        76709     97.37%     97.37% # delay_histogram (Unspecified)
board.cache_hierarchy.ruby_system.l1_controllers.delayHistogram::2-3           18      0.02%     97.39% # delay_histogram (Unspecified)
board.cache_hierarchy.ruby_system.l1_controllers.delayHistogram::4-5            5      0.01%     97.40% # delay_histogram (Unspecified)
board.cache_hierarchy.ruby_system.l1_controllers.delayHistogram::6-7          733      0.93%     98.33% # delay_histogram (Unspecified)
board.cache_hierarchy.ruby_system.l1_controllers.delayHistogram::8-9         1312      1.67%    100.00% # delay_histogram (Unspecified)
board.cache_hierarchy.ruby_system.l1_controllers.delayHistogram::10-11            3      0.00%    100.00% # delay_histogram (Unspecified)
board.cache_hierarchy.ruby_system.l1_controllers.delayHistogram::total        78780                       # delay_histogram (Unspecified)
board.cache_hierarchy.ruby_system.l1_controllers.L1Dcache.m_demand_hits     12221343                       # Number of cache demand hits (Unspecified)
board.cache_hierarchy.ruby_system.l1_controllers.L1Dcache.m_demand_misses        18413                       # Number of cache demand misses (Unspecified)
board.cache_hierarchy.ruby_system.l1_controllers.L1Dcache.m_demand_accesses     12239756                       # Number of cache demand accesses (Unspecified)
board.cache_hierarchy.ruby_system.l1_controllers.L1Icache.m_demand_hits      5207077                       # Number of cache demand hits (Unspecified)
board.cache_hierarchy.ruby_system.l1_controllers.L1Icache.m_demand_misses        42212                       # Number of cache demand misses (Unspecified)
board.cache_hierarchy.ruby_system.l1_controllers.L1Icache.m_demand_accesses      5249289                       # Number of cache demand accesses (Unspecified)
board.cache_hierarchy.ruby_system.l1_controllers.mandatoryQueue.m_msg_count     17489045                       # Number of messages passed the buffer (Count)
board.cache_hierarchy.ruby_system.l1_controllers.mandatoryQueue.m_buf_msgs     0.653147                       # Average number of messages in buffer ((Count/Tick))
board.cache_hierarchy.ruby_system.l1_controllers.mandatoryQueue.m_stall_time       111888                       # Total number of ticks messages were stalled in this buffer (Tick)
board.cache_hierarchy.ruby_system.l1_controllers.mandatoryQueue.m_stall_count            6                       # Number of times messages were stalled (Count)
board.cache_hierarchy.ruby_system.l1_controllers.mandatoryQueue.m_avg_stall_time     0.006398                       # Average stall ticks per message ((Tick/Count))
board.cache_hierarchy.ruby_system.l1_controllers.power_state.pwrStateResidencyTicks::UNDEFINED   8916774300                       # Cumulative time (in ticks) in various power states (Tick)
board.cache_hierarchy.ruby_system.l1_controllers.prefetcher.RubyPrefetcher.numMissObserved            0                       # Number of misses observed (Unspecified)
board.cache_hierarchy.ruby_system.l1_controllers.prefetcher.RubyPrefetcher.numAllocatedStreams            0                       # Number of streams allocated for prefetching (Unspecified)
board.cache_hierarchy.ruby_system.l1_controllers.prefetcher.RubyPrefetcher.numPrefetchRequested            0                       # Number of prefetch requests made (Unspecified)
board.cache_hierarchy.ruby_system.l1_controllers.prefetcher.RubyPrefetcher.numHits            0                       # Number of prefetched blocks accessed (for the first time) (Unspecified)
board.cache_hierarchy.ruby_system.l1_controllers.prefetcher.RubyPrefetcher.numPartialHits            0                       # Number of misses observed for a block being prefetched (Unspecified)
board.cache_hierarchy.ruby_system.l1_controllers.prefetcher.RubyPrefetcher.numPagesCrossed            0                       # Number of prefetches across pages (Unspecified)
board.cache_hierarchy.ruby_system.l1_controllers.prefetcher.RubyPrefetcher.numMissedPrefetchedBlocks            0                       # Number of misses for blocks that were prefetched, yet missed (Unspecified)
board.cache_hierarchy.ruby_system.l1_controllers.requestFromL1Cache.m_msg_count        78778                       # Number of messages passed the buffer (Count)
board.cache_hierarchy.ruby_system.l1_controllers.requestFromL1Cache.m_buf_msgs     0.005884                       # Average number of messages in buffer ((Count/Tick))
board.cache_hierarchy.ruby_system.l1_controllers.requestToL1Cache.m_msg_count            3                       # Number of messages passed the buffer (Count)
board.cache_hierarchy.ruby_system.l1_controllers.requestToL1Cache.m_buf_msgs     0.000000                       # Average number of messages in buffer ((Count/Tick))
board.cache_hierarchy.ruby_system.l1_controllers.responseFromL1Cache.m_msg_count            3                       # Number of messages passed the buffer (Count)
board.cache_hierarchy.ruby_system.l1_controllers.responseFromL1Cache.m_buf_msgs     0.000000                       # Average number of messages in buffer ((Count/Tick))
board.cache_hierarchy.ruby_system.l1_controllers.responseToL1Cache.m_msg_count        78777                       # Number of messages passed the buffer (Count)
board.cache_hierarchy.ruby_system.l1_controllers.responseToL1Cache.m_buf_msgs     0.002942                       # Average number of messages in buffer ((Count/Tick))
board.cache_hierarchy.ruby_system.l1_controllers.sequencer.power_state.pwrStateResidencyTicks::UNDEFINED   8916774300                       # Cumulative time (in ticks) in various power states (Tick)
board.cache_hierarchy.ruby_system.l1_controllers.unblockFromL1Cache.m_msg_count        18409                       # Number of messages passed the buffer (Count)
board.cache_hierarchy.ruby_system.l1_controllers.unblockFromL1Cache.m_buf_msgs     0.000687                       # Average number of messages in buffer ((Count/Tick))
board.cache_hierarchy.ruby_system.l2_controllers.delayHistogram::samples       100354                       # delay_histogram (Unspecified)
board.cache_hierarchy.ruby_system.l2_controllers.delayHistogram::mean     1.474062                       # delay_histogram (Unspecified)
board.cache_hierarchy.ruby_system.l2_controllers.delayHistogram::stdev     3.316201                       # delay_histogram (Unspecified)
board.cache_hierarchy.ruby_system.l2_controllers.delayHistogram::0-3        83032     82.74%     82.74% # delay_histogram (Unspecified)
board.cache_hierarchy.ruby_system.l2_controllers.delayHistogram::4-7           83      0.08%     82.82% # delay_histogram (Unspecified)
board.cache_hierarchy.ruby_system.l2_controllers.delayHistogram::8-11        16192     16.13%     98.96% # delay_histogram (Unspecified)
board.cache_hierarchy.ruby_system.l2_controllers.delayHistogram::12-15           64      0.06%     99.02% # delay_histogram (Unspecified)
board.cache_hierarchy.ruby_system.l2_controllers.delayHistogram::16-19          966      0.96%     99.98% # delay_histogram (Unspecified)
board.cache_hierarchy.ruby_system.l2_controllers.delayHistogram::20-23            6      0.01%     99.99% # delay_histogram (Unspecified)
board.cache_hierarchy.ruby_system.l2_controllers.delayHistogram::24-27           10      0.01%    100.00% # delay_histogram (Unspecified)
board.cache_hierarchy.ruby_system.l2_controllers.delayHistogram::32-35            1      0.00%    100.00% # delay_histogram (Unspecified)
board.cache_hierarchy.ruby_system.l2_controllers.delayHistogram::total       100354                       # delay_histogram (Unspecified)
board.cache_hierarchy.ruby_system.l2_controllers.DirRequestFromL2Cache.m_msg_count         3160                       # Number of messages passed the buffer (Count)
board.cache_hierarchy.ruby_system.l2_controllers.DirRequestFromL2Cache.m_buf_msgs     0.000236                       # Average number of messages in buffer ((Count/Tick))
board.cache_hierarchy.ruby_system.l2_controllers.L1RequestFromL2Cache.m_msg_count            6                       # Number of messages passed the buffer (Count)
board.cache_hierarchy.ruby_system.l2_controllers.L1RequestFromL2Cache.m_buf_msgs     0.000000                       # Average number of messages in buffer ((Count/Tick))
board.cache_hierarchy.ruby_system.l2_controllers.L1RequestToL2Cache.m_msg_count        78777                       # Number of messages passed the buffer (Count)
board.cache_hierarchy.ruby_system.l2_controllers.L1RequestToL2Cache.m_buf_msgs     0.002942                       # Average number of messages in buffer ((Count/Tick))
board.cache_hierarchy.ruby_system.l2_controllers.L2cache.m_demand_hits        57464                       # Number of cache demand hits (Unspecified)
board.cache_hierarchy.ruby_system.l2_controllers.L2cache.m_demand_misses         3160                       # Number of cache demand misses (Unspecified)
board.cache_hierarchy.ruby_system.l2_controllers.L2cache.m_demand_accesses        60624                       # Number of cache demand accesses (Unspecified)
board.cache_hierarchy.ruby_system.l2_controllers.power_state.pwrStateResidencyTicks::UNDEFINED   8916774300                       # Cumulative time (in ticks) in various power states (Tick)
board.cache_hierarchy.ruby_system.l2_controllers.responseFromL2Cache.m_msg_count        78782                       # Number of messages passed the buffer (Count)
board.cache_hierarchy.ruby_system.l2_controllers.responseFromL2Cache.m_buf_msgs     0.005088                       # Average number of messages in buffer ((Count/Tick))
board.cache_hierarchy.ruby_system.l2_controllers.responseToL2Cache.m_msg_count         3168                       # Number of messages passed the buffer (Count)
board.cache_hierarchy.ruby_system.l2_controllers.responseToL2Cache.m_buf_msgs     0.000118                       # Average number of messages in buffer ((Count/Tick))
board.cache_hierarchy.ruby_system.l2_controllers.unblockToL2Cache.m_msg_count        18409                       # Number of messages passed the buffer (Count)
board.cache_hierarchy.ruby_system.l2_controllers.unblockToL2Cache.m_buf_msgs     0.000687                       # Average number of messages in buffer ((Count/Tick))
board.cache_hierarchy.ruby_system.network.msg_count.Control       127570                       (Unspecified)
board.cache_hierarchy.ruby_system.network.msg_byte.Control      1020560                       (Unspecified)
board.cache_hierarchy.ruby_system.network.msg_count.Request_Control            6                       (Unspecified)
board.cache_hierarchy.ruby_system.network.msg_byte.Request_Control           48                       (Unspecified)
board.cache_hierarchy.ruby_system.network.msg_count.Response_Data       127568                       (Unspecified)
board.cache_hierarchy.ruby_system.network.msg_byte.Response_Data      9184896                       (Unspecified)
board.cache_hierarchy.ruby_system.network.msg_count.Response_Control        73150                       (Unspecified)
board.cache_hierarchy.ruby_system.network.msg_byte.Response_Control       585200                       (Unspecified)
board.cache_hierarchy.ruby_system.network.msg_count.Writeback_Data        32460                       (Unspecified)
board.cache_hierarchy.ruby_system.network.msg_byte.Writeback_Data      2337120                       (Unspecified)
board.cache_hierarchy.ruby_system.network.msg_count.Writeback_Control         3846                       (Unspecified)
board.cache_hierarchy.ruby_system.network.msg_byte.Writeback_Control        30768                       (Unspecified)
board.cache_hierarchy.ruby_system.network.int_links0.buffers0.m_msg_count        78778                       # Number of messages passed the buffer (Count)
board.cache_hierarchy.ruby_system.network.int_links0.buffers0.m_buf_msgs     0.002942                       # Average number of messages in buffer ((Count/Tick))
board.cache_hierarchy.ruby_system.network.int_links0.buffers1.m_msg_count            3                       # Number of messages passed the buffer (Count)
board.cache_hierarchy.ruby_system.network.int_links0.buffers1.m_buf_msgs     0.000000                       # Average number of messages in buffer ((Count/Tick))
board.cache_hierarchy.ruby_system.network.int_links0.buffers2.m_msg_count        18409                       # Number of messages passed the buffer (Count)
board.cache_hierarchy.ruby_system.network.int_links0.buffers2.m_buf_msgs     0.000687                       # Average number of messages in buffer ((Count/Tick))
board.cache_hierarchy.ruby_system.network.int_links2.buffers1.m_msg_count        78777                       # Number of messages passed the buffer (Count)
board.cache_hierarchy.ruby_system.network.int_links2.buffers1.m_buf_msgs     0.002942                       # Average number of messages in buffer ((Count/Tick))
board.cache_hierarchy.ruby_system.network.int_links2.buffers2.m_msg_count            3                       # Number of messages passed the buffer (Count)
board.cache_hierarchy.ruby_system.network.int_links2.buffers2.m_buf_msgs     0.000000                       # Average number of messages in buffer ((Count/Tick))
board.cache_hierarchy.ruby_system.network.int_links3.buffers0.m_msg_count         3160                       # Number of messages passed the buffer (Count)
board.cache_hierarchy.ruby_system.network.int_links3.buffers0.m_buf_msgs     0.000118                       # Average number of messages in buffer ((Count/Tick))
board.cache_hierarchy.ruby_system.network.int_links3.buffers1.m_msg_count            5                       # Number of messages passed the buffer (Count)
board.cache_hierarchy.ruby_system.network.int_links3.buffers1.m_buf_msgs     0.000000                       # Average number of messages in buffer ((Count/Tick))
board.cache_hierarchy.ruby_system.network.int_links5.buffers1.m_msg_count         3165                       # Number of messages passed the buffer (Count)
board.cache_hierarchy.ruby_system.network.int_links5.buffers1.m_buf_msgs     0.000118                       # Average number of messages in buffer ((Count/Tick))
board.cache_hierarchy.ruby_system.network.power_state.pwrStateResidencyTicks::UNDEFINED   8916774300                       # Cumulative time (in ticks) in various power states (Tick)
board.cache_hierarchy.ruby_system.network.routers0.percent_links_utilized     0.492203                       (Unspecified)
board.cache_hierarchy.ruby_system.network.routers0.msg_count.Control::0        60625                       (Unspecified)
board.cache_hierarchy.ruby_system.network.routers0.msg_bytes.Control::0       485000                       (Unspecified)
board.cache_hierarchy.ruby_system.network.routers0.msg_count.Request_Control::2            3                       (Unspecified)
board.cache_hierarchy.ruby_system.network.routers0.msg_bytes.Request_Control::2           24                       (Unspecified)
board.cache_hierarchy.ruby_system.network.routers0.msg_count.Response_Data::1        60622                       (Unspecified)
board.cache_hierarchy.ruby_system.network.routers0.msg_bytes.Response_Data::1      4364784                       (Unspecified)
board.cache_hierarchy.ruby_system.network.routers0.msg_count.Response_Control::1        18158                       (Unspecified)
board.cache_hierarchy.ruby_system.network.routers0.msg_count.Response_Control::2        18409                       (Unspecified)
board.cache_hierarchy.ruby_system.network.routers0.msg_bytes.Response_Control::1       145264                       (Unspecified)
board.cache_hierarchy.ruby_system.network.routers0.msg_bytes.Response_Control::2       147272                       (Unspecified)
board.cache_hierarchy.ruby_system.network.routers0.msg_count.Writeback_Data::0        16230                       (Unspecified)
board.cache_hierarchy.ruby_system.network.routers0.msg_bytes.Writeback_Data::0      1168560                       (Unspecified)
board.cache_hierarchy.ruby_system.network.routers0.msg_count.Writeback_Control::0         1923                       (Unspecified)
board.cache_hierarchy.ruby_system.network.routers0.msg_bytes.Writeback_Control::0        15384                       (Unspecified)
board.cache_hierarchy.ruby_system.network.routers0.port_buffers1.m_msg_count        78777                       # Number of messages passed the buffer (Count)
board.cache_hierarchy.ruby_system.network.routers0.port_buffers1.m_buf_msgs     0.002942                       # Average number of messages in buffer ((Count/Tick))
board.cache_hierarchy.ruby_system.network.routers0.port_buffers2.m_msg_count            3                       # Number of messages passed the buffer (Count)
board.cache_hierarchy.ruby_system.network.routers0.port_buffers2.m_buf_msgs     0.000000                       # Average number of messages in buffer ((Count/Tick))
board.cache_hierarchy.ruby_system.network.routers0.port_buffers3.m_msg_count        78778                       # Number of messages passed the buffer (Count)
board.cache_hierarchy.ruby_system.network.routers0.port_buffers3.m_buf_msgs     0.005699                       # Average number of messages in buffer ((Count/Tick))
board.cache_hierarchy.ruby_system.network.routers0.port_buffers3.m_stall_time     24581727                       # Total number of ticks messages were stalled in this buffer (Tick)
board.cache_hierarchy.ruby_system.network.routers0.port_buffers3.m_avg_stall_time   312.037967                       # Average stall ticks per message ((Tick/Count))
board.cache_hierarchy.ruby_system.network.routers0.port_buffers4.m_msg_count            3                       # Number of messages passed the buffer (Count)
board.cache_hierarchy.ruby_system.network.routers0.port_buffers4.m_buf_msgs     0.000000                       # Average number of messages in buffer ((Count/Tick))
board.cache_hierarchy.ruby_system.network.routers0.port_buffers5.m_msg_count        18409                       # Number of messages passed the buffer (Count)
board.cache_hierarchy.ruby_system.network.routers0.port_buffers5.m_buf_msgs     0.000688                       # Average number of messages in buffer ((Count/Tick))
board.cache_hierarchy.ruby_system.network.routers0.port_buffers5.m_stall_time          666                       # Total number of ticks messages were stalled in this buffer (Tick)
board.cache_hierarchy.ruby_system.network.routers0.port_buffers5.m_avg_stall_time     0.036178                       # Average stall ticks per message ((Tick/Count))
board.cache_hierarchy.ruby_system.network.routers0.power_state.pwrStateResidencyTicks::UNDEFINED   8916774300                       # Cumulative time (in ticks) in various power states (Tick)
board.cache_hierarchy.ruby_system.network.routers0.throttle00.acc_link_utilization       281878                       # Accumulated link utilization (Count)
board.cache_hierarchy.ruby_system.network.routers0.throttle00.link_utilization     1.052683                       # Average link utilization (Ratio)
board.cache_hierarchy.ruby_system.network.routers0.throttle00.total_msg_count        78780                       # Total number of messages forwarded by this switch (Count)
board.cache_hierarchy.ruby_system.network.routers0.throttle00.total_msg_bytes      4510048                       # Total number of bytes forwarded by this switch (Byte)
board.cache_hierarchy.ruby_system.network.routers0.throttle00.total_data_msg_bytes      3879808                       # Total number of data bytes forwarded by this switch (Byte)
board.cache_hierarchy.ruby_system.network.routers0.throttle00.total_msg_wait_time            0                       # Total time spend forwarding messages (Tick)
board.cache_hierarchy.ruby_system.network.routers0.throttle00.total_stall_cy            0                       # Total time spent blocked on any output link (Cycle)
board.cache_hierarchy.ruby_system.network.routers0.throttle00.total_bw_sat_cy       242488                       # Total time bandwidth was saturated on any output link (Cycle)
board.cache_hierarchy.ruby_system.network.routers0.throttle00.avg_msg_wait_time            0                       # Average time a message took to be forwarded (Ratio)
board.cache_hierarchy.ruby_system.network.routers0.throttle00.avg_bandwidth         0.47                       # Average bandwidth (GB/s) (Ratio)
board.cache_hierarchy.ruby_system.network.routers0.throttle00.avg_useful_bandwidth         0.41                       # Average usefull (only data) bandwidth (GB/s) (Ratio)
board.cache_hierarchy.ruby_system.network.routers0.throttle00.msg_count.Request_Control::2            3                       (Unspecified)
board.cache_hierarchy.ruby_system.network.routers0.throttle00.msg_bytes.Request_Control::2           24                       (Unspecified)
board.cache_hierarchy.ruby_system.network.routers0.throttle00.msg_count.Response_Data::1        60622                       (Unspecified)
board.cache_hierarchy.ruby_system.network.routers0.throttle00.msg_bytes.Response_Data::1      4364784                       (Unspecified)
board.cache_hierarchy.ruby_system.network.routers0.throttle00.msg_count.Response_Control::1        18155                       (Unspecified)
board.cache_hierarchy.ruby_system.network.routers0.throttle00.msg_bytes.Response_Control::1       145240                       (Unspecified)
board.cache_hierarchy.ruby_system.network.routers0.throttle01.acc_link_utilization       113515                       # Accumulated link utilization (Count)
board.cache_hierarchy.ruby_system.network.routers0.throttle01.link_utilization     0.423926                       # Average link utilization (Ratio)
board.cache_hierarchy.ruby_system.network.routers0.throttle01.total_msg_count        97190                       # Total number of messages forwarded by this switch (Count)
board.cache_hierarchy.ruby_system.network.routers0.throttle01.total_msg_bytes      1816240                       # Total number of bytes forwarded by this switch (Byte)
board.cache_hierarchy.ruby_system.network.routers0.throttle01.total_data_msg_bytes      1038720                       # Total number of data bytes forwarded by this switch (Byte)
board.cache_hierarchy.ruby_system.network.routers0.throttle01.total_msg_wait_time     24582393                       # Total time spend forwarding messages (Tick)
board.cache_hierarchy.ruby_system.network.routers0.throttle01.total_stall_cy            0                       # Total time spent blocked on any output link (Cycle)
board.cache_hierarchy.ruby_system.network.routers0.throttle01.total_bw_sat_cy        66308                       # Total time bandwidth was saturated on any output link (Cycle)
board.cache_hierarchy.ruby_system.network.routers0.throttle01.avg_msg_wait_time   252.931300                       # Average time a message took to be forwarded (Ratio)
board.cache_hierarchy.ruby_system.network.routers0.throttle01.avg_bandwidth         0.19                       # Average bandwidth (GB/s) (Ratio)
board.cache_hierarchy.ruby_system.network.routers0.throttle01.avg_useful_bandwidth         0.11                       # Average usefull (only data) bandwidth (GB/s) (Ratio)
board.cache_hierarchy.ruby_system.network.routers0.throttle01.msg_count.Control::0        60625                       (Unspecified)
board.cache_hierarchy.ruby_system.network.routers0.throttle01.msg_bytes.Control::0       485000                       (Unspecified)
board.cache_hierarchy.ruby_system.network.routers0.throttle01.msg_count.Response_Control::1            3                       (Unspecified)
board.cache_hierarchy.ruby_system.network.routers0.throttle01.msg_count.Response_Control::2        18409                       (Unspecified)
board.cache_hierarchy.ruby_system.network.routers0.throttle01.msg_bytes.Response_Control::1           24                       (Unspecified)
board.cache_hierarchy.ruby_system.network.routers0.throttle01.msg_bytes.Response_Control::2       147272                       (Unspecified)
board.cache_hierarchy.ruby_system.network.routers0.throttle01.msg_count.Writeback_Data::0        16230                       (Unspecified)
board.cache_hierarchy.ruby_system.network.routers0.throttle01.msg_bytes.Writeback_Data::0      1168560                       (Unspecified)
board.cache_hierarchy.ruby_system.network.routers0.throttle01.msg_count.Writeback_Control::0         1923                       (Unspecified)
board.cache_hierarchy.ruby_system.network.routers0.throttle01.msg_bytes.Writeback_Control::0        15384                       (Unspecified)
board.cache_hierarchy.ruby_system.network.routers0.throttle02.acc_link_utilization            0                       # Accumulated link utilization (Count)
board.cache_hierarchy.ruby_system.network.routers0.throttle02.link_utilization            0                       # Average link utilization (Ratio)
board.cache_hierarchy.ruby_system.network.routers0.throttle02.total_msg_count            0                       # Total number of messages forwarded by this switch (Count)
board.cache_hierarchy.ruby_system.network.routers0.throttle02.total_msg_bytes            0                       # Total number of bytes forwarded by this switch (Byte)
board.cache_hierarchy.ruby_system.network.routers0.throttle02.total_data_msg_bytes            0                       # Total number of data bytes forwarded by this switch (Byte)
board.cache_hierarchy.ruby_system.network.routers0.throttle02.total_msg_wait_time            0                       # Total time spend forwarding messages (Tick)
board.cache_hierarchy.ruby_system.network.routers0.throttle02.total_stall_cy            0                       # Total time spent blocked on any output link (Cycle)
board.cache_hierarchy.ruby_system.network.routers0.throttle02.total_bw_sat_cy            0                       # Total time bandwidth was saturated on any output link (Cycle)
board.cache_hierarchy.ruby_system.network.routers0.throttle02.avg_msg_wait_time          nan                       # Average time a message took to be forwarded (Ratio)
board.cache_hierarchy.ruby_system.network.routers0.throttle02.avg_bandwidth         0.00                       # Average bandwidth (GB/s) (Ratio)
board.cache_hierarchy.ruby_system.network.routers0.throttle02.avg_useful_bandwidth         0.00                       # Average usefull (only data) bandwidth (GB/s) (Ratio)
board.cache_hierarchy.ruby_system.network.routers1.percent_links_utilized     0.511888                       (Unspecified)
board.cache_hierarchy.ruby_system.network.routers1.msg_count.Control::0        63785                       (Unspecified)
board.cache_hierarchy.ruby_system.network.routers1.msg_bytes.Control::0       510280                       (Unspecified)
board.cache_hierarchy.ruby_system.network.routers1.msg_count.Request_Control::2            3                       (Unspecified)
board.cache_hierarchy.ruby_system.network.routers1.msg_bytes.Request_Control::2           24                       (Unspecified)
board.cache_hierarchy.ruby_system.network.routers1.msg_count.Response_Data::1        63784                       (Unspecified)
board.cache_hierarchy.ruby_system.network.routers1.msg_bytes.Response_Data::1      4592448                       (Unspecified)
board.cache_hierarchy.ruby_system.network.routers1.msg_count.Response_Control::1        18166                       (Unspecified)
board.cache_hierarchy.ruby_system.network.routers1.msg_count.Response_Control::2        18409                       (Unspecified)
board.cache_hierarchy.ruby_system.network.routers1.msg_bytes.Response_Control::1       145328                       (Unspecified)
board.cache_hierarchy.ruby_system.network.routers1.msg_bytes.Response_Control::2       147272                       (Unspecified)
board.cache_hierarchy.ruby_system.network.routers1.msg_count.Writeback_Data::0        16230                       (Unspecified)
board.cache_hierarchy.ruby_system.network.routers1.msg_bytes.Writeback_Data::0      1168560                       (Unspecified)
board.cache_hierarchy.ruby_system.network.routers1.msg_count.Writeback_Control::0         1923                       (Unspecified)
board.cache_hierarchy.ruby_system.network.routers1.msg_bytes.Writeback_Control::0        15384                       (Unspecified)
board.cache_hierarchy.ruby_system.network.routers1.port_buffers0.m_msg_count        78778                       # Number of messages passed the buffer (Count)
board.cache_hierarchy.ruby_system.network.routers1.port_buffers0.m_buf_msgs     0.002947                       # Average number of messages in buffer ((Count/Tick))
board.cache_hierarchy.ruby_system.network.routers1.port_buffers0.m_stall_time        47286                       # Total number of ticks messages were stalled in this buffer (Tick)
board.cache_hierarchy.ruby_system.network.routers1.port_buffers0.m_avg_stall_time     0.600244                       # Average stall ticks per message ((Tick/Count))
board.cache_hierarchy.ruby_system.network.routers1.port_buffers1.m_msg_count         3168                       # Number of messages passed the buffer (Count)
board.cache_hierarchy.ruby_system.network.routers1.port_buffers1.m_buf_msgs     0.000118                       # Average number of messages in buffer ((Count/Tick))
board.cache_hierarchy.ruby_system.network.routers1.port_buffers2.m_msg_count        18409                       # Number of messages passed the buffer (Count)
board.cache_hierarchy.ruby_system.network.routers1.port_buffers2.m_buf_msgs     0.000688                       # Average number of messages in buffer ((Count/Tick))
board.cache_hierarchy.ruby_system.network.routers1.port_buffers2.m_stall_time          333                       # Total number of ticks messages were stalled in this buffer (Tick)
board.cache_hierarchy.ruby_system.network.routers1.port_buffers2.m_avg_stall_time     0.018089                       # Average stall ticks per message ((Tick/Count))
board.cache_hierarchy.ruby_system.network.routers1.port_buffers4.m_msg_count        78777                       # Number of messages passed the buffer (Count)
board.cache_hierarchy.ruby_system.network.routers1.port_buffers4.m_buf_msgs     0.003222                       # Average number of messages in buffer ((Count/Tick))
board.cache_hierarchy.ruby_system.network.routers1.port_buffers4.m_stall_time      2494170                       # Total number of ticks messages were stalled in this buffer (Tick)
board.cache_hierarchy.ruby_system.network.routers1.port_buffers4.m_avg_stall_time    31.661145                       # Average stall ticks per message ((Tick/Count))
board.cache_hierarchy.ruby_system.network.routers1.port_buffers5.m_msg_count            3                       # Number of messages passed the buffer (Count)
board.cache_hierarchy.ruby_system.network.routers1.port_buffers5.m_buf_msgs     0.000000                       # Average number of messages in buffer ((Count/Tick))
board.cache_hierarchy.ruby_system.network.routers1.port_buffers6.m_msg_count         3160                       # Number of messages passed the buffer (Count)
board.cache_hierarchy.ruby_system.network.routers1.port_buffers6.m_buf_msgs     0.000118                       # Average number of messages in buffer ((Count/Tick))
board.cache_hierarchy.ruby_system.network.routers1.port_buffers6.m_stall_time         2664                       # Total number of ticks messages were stalled in this buffer (Tick)
board.cache_hierarchy.ruby_system.network.routers1.port_buffers6.m_avg_stall_time     0.843038                       # Average stall ticks per message ((Tick/Count))
board.cache_hierarchy.ruby_system.network.routers1.port_buffers7.m_msg_count            5                       # Number of messages passed the buffer (Count)
board.cache_hierarchy.ruby_system.network.routers1.port_buffers7.m_buf_msgs     0.000000                       # Average number of messages in buffer ((Count/Tick))
board.cache_hierarchy.ruby_system.network.routers1.power_state.pwrStateResidencyTicks::UNDEFINED   8916774300                       # Cumulative time (in ticks) in various power states (Tick)
board.cache_hierarchy.ruby_system.network.routers1.throttle00.acc_link_utilization 127737.500000                       # Accumulated link utilization (Count)
board.cache_hierarchy.ruby_system.network.routers1.throttle00.link_utilization     0.477040                       # Average link utilization (Ratio)
board.cache_hierarchy.ruby_system.network.routers1.throttle00.total_msg_count       100355                       # Total number of messages forwarded by this switch (Count)
board.cache_hierarchy.ruby_system.network.routers1.throttle00.total_msg_bytes      2043800                       # Total number of bytes forwarded by this switch (Byte)
board.cache_hierarchy.ruby_system.network.routers1.throttle00.total_data_msg_bytes      1240960                       # Total number of data bytes forwarded by this switch (Byte)
board.cache_hierarchy.ruby_system.network.routers1.throttle00.total_msg_wait_time        47619                       # Total time spend forwarding messages (Tick)
board.cache_hierarchy.ruby_system.network.routers1.throttle00.total_stall_cy            0                       # Total time spent blocked on any output link (Cycle)
board.cache_hierarchy.ruby_system.network.routers1.throttle00.total_bw_sat_cy        77583                       # Total time bandwidth was saturated on any output link (Cycle)
board.cache_hierarchy.ruby_system.network.routers1.throttle00.avg_msg_wait_time     0.474506                       # Average time a message took to be forwarded (Ratio)
board.cache_hierarchy.ruby_system.network.routers1.throttle00.avg_bandwidth         0.21                       # Average bandwidth (GB/s) (Ratio)
board.cache_hierarchy.ruby_system.network.routers1.throttle00.avg_useful_bandwidth         0.13                       # Average usefull (only data) bandwidth (GB/s) (Ratio)
board.cache_hierarchy.ruby_system.network.routers1.throttle00.msg_count.Control::0        60625                       (Unspecified)
board.cache_hierarchy.ruby_system.network.routers1.throttle00.msg_bytes.Control::0       485000                       (Unspecified)
board.cache_hierarchy.ruby_system.network.routers1.throttle00.msg_count.Response_Data::1         3160                       (Unspecified)
board.cache_hierarchy.ruby_system.network.routers1.throttle00.msg_bytes.Response_Data::1       227520                       (Unspecified)
[...]
board.processor.cores.core.executeStats0.numIntRegReads     78543101                       # Number of times the integer registers were read (Count)
board.processor.cores.core.executeStats0.numIntRegWrites     44333947                       # Number of times the integer registers were written (Count)
board.processor.cores.core.executeStats0.numMemRefs     13568693                       # Number of memory refs (Count)
board.processor.cores.core.executeStats0.numMiscRegReads     26651712                       # Number of times the Misc registers were read (Count)
board.processor.cores.core.executeStats0.numVecAluAccesses            0                       # Number of vector alu accesses (Count)
board.processor.cores.core.executeStats0.numDiscardedOps            0                       # Number of ops (including micro ops) which were discarded before commit (Count)
board.processor.cores.core.fetch.predictedBranches      3934131                       # Number of branches that fetch has predicted taken (Count)
board.processor.cores.core.fetch.cycles      20509564                       # Number of cycles fetch has run and was not squashing or blocked (Cycle)
board.processor.cores.core.fetch.squashCycles       466454                       # Number of cycles fetch has spent squashing (Cycle)
board.processor.cores.core.fetch.miscStallCycles           50                       # Number of cycles fetch has spent waiting on interrupts, or bad addresses, or out of MSHRs (Cycle)
board.processor.cores.core.fetch.pendingTrapStallCycles          271                       # Number of stall cycles due to pending traps (Cycle)
board.processor.cores.core.fetch.icacheWaitRetryStallCycles           13                       # Number of stall cycles due to full MSHR (Cycle)
board.processor.cores.core.fetch.cacheLines      5249532                       # Number of cache lines fetched (Count)
board.processor.cores.core.fetch.icacheSquashes        30401                       # Number of outstanding Icache misses that were squashed (Count)
board.processor.cores.core.fetch.nisnDist::samples     26690744                       # Number of instructions fetched each cycle (Total) (Count)
board.processor.cores.core.fetch.nisnDist::mean     2.636208                       # Number of instructions fetched each cycle (Total) (Count)
board.processor.cores.core.fetch.nisnDist::stdev     1.756985                       # Number of instructions fetched each cycle (Total) (Count)
board.processor.cores.core.fetch.nisnDist::underflows            0      0.00%      0.00% # Number of instructions fetched each cycle (Total) (Count)
board.processor.cores.core.fetch.nisnDist::0      6933607     25.98%     25.98% # Number of instructions fetched each cycle (Total) (Count)
board.processor.cores.core.fetch.nisnDist::1      1630457      6.11%     32.09% # Number of instructions fetched each cycle (Total) (Count)
board.processor.cores.core.fetch.nisnDist::2      1325237      4.97%     37.05% # Number of instructions fetched each cycle (Total) (Count)
board.processor.cores.core.fetch.nisnDist::3      1124346      4.21%     41.26% # Number of instructions fetched each cycle (Total) (Count)
board.processor.cores.core.fetch.nisnDist::4     15677097     58.74%    100.00% # Number of instructions fetched each cycle (Total) (Count)
board.processor.cores.core.fetch.nisnDist::overflows            0      0.00%    100.00% # Number of instructions fetched each cycle (Total) (Count)
board.processor.cores.core.fetch.nisnDist::min_value            0                       # Number of instructions fetched each cycle (Total) (Count)
board.processor.cores.core.fetch.nisnDist::max_value            4                       # Number of instructions fetched each cycle (Total) (Count)
board.processor.cores.core.fetch.nisnDist::total     26690744                       # Number of instructions fetched each cycle (Total) (Count)
board.processor.cores.core.fetchStats0.numInsts     37475069                       # Number of instructions fetched (thread level) (Count)
board.processor.cores.core.fetchStats0.numOps            0                       # Number of ops (including micro ops) fetched (thread level) (Count)
board.processor.cores.core.fetchStats0.fetchRate     1.399519                       # Number of inst fetches per cycle ((Count/Cycle))
board.processor.cores.core.fetchStats0.numBranches      6901727                       # Number of branches fetched (Count)
board.processor.cores.core.fetchStats0.branchRate     0.257747                       # Number of branch fetches per cycle (Ratio)
board.processor.cores.core.fetchStats0.icacheStallCycles      5947619                       # ICache total stall cycles (Cycle)
board.processor.cores.core.fetchStats0.numFetchSuspends            0                       # Number of times Execute suspended instruction fetching (Count)
board.processor.cores.core.iew.idleCycles            0                       # Number of cycles IEW is idle (Cycle)
board.processor.cores.core.iew.squashCycles       166082                       # Number of cycles IEW is squashing (Cycle)
board.processor.cores.core.iew.blockCycles       613326                       # Number of cycles IEW is blocking (Cycle)
board.processor.cores.core.iew.unblockCycles        61211                       # Number of cycles IEW is unblocking (Cycle)
board.processor.cores.core.iew.dispatchedInsts     67667526                       # Number of instructions dispatched to IQ (Count)
board.processor.cores.core.iew.dispSquashedInsts       150250                       # Number of squashed instructions skipped by dispatch (Count)
board.processor.cores.core.iew.dispLoadInsts      8557414                       # Number of dispatched load instructions (Count)
board.processor.cores.core.iew.dispStoreInsts      5286408                       # Number of dispatched store instructions (Count)
board.processor.cores.core.iew.dispNonSpecInsts        67761                       # Number of dispatched non-speculative instructions (Count)
board.processor.cores.core.iew.iqFullEvents        24263                       # Number of times the IQ has become full, causing a stall (Count)
board.processor.cores.core.iew.lsqFullEvents        34197                       # Number of times the LSQ has become full, causing a stall (Count)
board.processor.cores.core.iew.memOrderViolationEvents          223                       # Number of memory order violations (Count)
board.processor.cores.core.iew.predictedTakenIncorrect        75308                       # Number of branches that were predicted taken incorrectly (Count)
board.processor.cores.core.iew.predictedNotTakenIncorrect        92875                       # Number of branches that were predicted not taken incorrectly (Count)
board.processor.cores.core.iew.branchMispredicts       168183                       # Number of branch mispredicts detected at execute (Count)
board.processor.cores.core.iew.instsToCommit     65629583                       # Cumulative count of insts sent to commit (Count)
board.processor.cores.core.iew.writebackCount     65611644                       # Cumulative count of insts written-back (Count)
board.processor.cores.core.iew.producerInst     43520486                       # Number of instructions producing a value (Count)
board.processor.cores.core.iew.consumerInst     70599750                       # Number of instructions consuming a value (Count)
board.processor.cores.core.iew.wbRate        2.450289                       # Insts written-back per cycle ((Count/Cycle))
board.processor.cores.core.iew.wbFanout      0.616440                       # Average fanout of values written-back ((Count/Count))
board.processor.cores.core.interrupts.clk_domain.clock         5328                       # Clock period in ticks (Tick)
board.processor.cores.core.lsq0.forwLoads       326495                       # Number of loads that had data forwarded from stores (Count)
board.processor.cores.core.lsq0.squashedLoads       470730                       # Number of loads squashed (Count)
board.processor.cores.core.lsq0.ignoredResponses           39                       # Number of memory responses ignored because the instruction is squashed (Count)
board.processor.cores.core.lsq0.memOrderViolation          223                       # Number of memory ordering violations (Count)
board.processor.cores.core.lsq0.squashedStores       211084                       # Number of stores squashed (Count)
board.processor.cores.core.lsq0.rescheduledLoads         4647                       # Number of loads that were rescheduled (Count)
board.processor.cores.core.lsq0.blockedByCache            5                       # Number of times an access to memory failed due to the cache being blocked (Count)
board.processor.cores.core.lsq0.loadToUse::samples      8086684                       # Distribution of cycle latency between the first time a load is issued and its completion (Unspecified)
board.processor.cores.core.lsq0.loadToUse::mean     3.025780                       # Distribution of cycle latency between the first time a load is issued and its completion (Unspecified)
board.processor.cores.core.lsq0.loadToUse::stdev     3.265394                       # Distribution of cycle latency between the first time a load is issued and its completion (Unspecified)
board.processor.cores.core.lsq0.loadToUse::0-9      8076410     99.87%     99.87% # Distribution of cycle latency between the first time a load is issued and its completion (Unspecified)
board.processor.cores.core.lsq0.loadToUse::10-19         6904      0.09%     99.96% # Distribution of cycle latency between the first time a load is issued and its completion (Unspecified)
board.processor.cores.core.lsq0.loadToUse::20-29         1076      0.01%     99.97% # Distribution of cycle latency between the first time a load is issued and its completion (Unspecified)
board.processor.cores.core.lsq0.loadToUse::30-39            1      0.00%     99.97% # Distribution of cycle latency between the first time a load is issued and its completion (Unspecified)
board.processor.cores.core.lsq0.loadToUse::40-49            4      0.00%     99.97% # Distribution of cycle latency between the first time a load is issued and its completion (Unspecified)
board.processor.cores.core.lsq0.loadToUse::80-89           67      0.00%     99.97% # Distribution of cycle latency between the first time a load is issued and its completion (Unspecified)
board.processor.cores.core.lsq0.loadToUse::90-99            2      0.00%     99.97% # Distribution of cycle latency between the first time a load is issued and its completion (Unspecified)
board.processor.cores.core.lsq0.loadToUse::100-109            9      0.00%     99.97% # Distribution of cycle latency between the first time a load is issued and its completion (Unspecified)
board.processor.cores.core.lsq0.loadToUse::110-119            7      0.00%     99.97% # Distribution of cycle latency between the first time a load is issued and its completion (Unspecified)
board.processor.cores.core.lsq0.loadToUse::120-129          374      0.00%     99.98% # Distribution of cycle latency between the first time a load is issued and its completion (Unspecified)
board.processor.cores.core.lsq0.loadToUse::130-139          493      0.01%     99.98% # Distribution of cycle latency between the first time a load is issued and its completion (Unspecified)
board.processor.cores.core.lsq0.loadToUse::140-149          863      0.01%     99.99% # Distribution of cycle latency between the first time a load is issued and its completion (Unspecified)
board.processor.cores.core.lsq0.loadToUse::150-159           31      0.00%     99.99% # Distribution of cycle latency between the first time a load is issued and its completion (Unspecified)
board.processor.cores.core.lsq0.loadToUse::160-169           19      0.00%     99.99% # Distribution of cycle latency between the first time a load is issued and its completion (Unspecified)
board.processor.cores.core.lsq0.loadToUse::170-179           16      0.00%     99.99% # Distribution of cycle latency between the first time a load is issued and its completion (Unspecified)
board.processor.cores.core.lsq0.loadToUse::180-189          332      0.00%    100.00% # Distribution of cycle latency between the first time a load is issued and its completion (Unspecified)
board.processor.cores.core.lsq0.loadToUse::190-199            4      0.00%    100.00% # Distribution of cycle latency between the first time a load is issued and its completion (Unspecified)
board.processor.cores.core.lsq0.loadToUse::210-219            1      0.00%    100.00% # Distribution of cycle latency between the first time a load is issued and its completion (Unspecified)
board.processor.cores.core.lsq0.loadToUse::220-229           16      0.00%    100.00% # Distribution of cycle latency between the first time a load is issued and its completion (Unspecified)
board.processor.cores.core.lsq0.loadToUse::230-239            5      0.00%    100.00% # Distribution of cycle latency between the first time a load is issued and its completion (Unspecified)
board.processor.cores.core.lsq0.loadToUse::240-249            2      0.00%    100.00% # Distribution of cycle latency between the first time a load is issued and its completion (Unspecified)
board.processor.cores.core.lsq0.loadToUse::250-259            2      0.00%    100.00% # Distribution of cycle latency between the first time a load is issued and its completion (Unspecified)
board.processor.cores.core.lsq0.loadToUse::270-279            2      0.00%    100.00% # Distribution of cycle latency between the first time a load is issued and its completion (Unspecified)
board.processor.cores.core.lsq0.loadToUse::280-289            4      0.00%    100.00% # Distribution of cycle latency between the first time a load is issued and its completion (Unspecified)
board.processor.cores.core.lsq0.loadToUse::290-299            1      0.00%    100.00% # Distribution of cycle latency between the first time a load is issued and its completion (Unspecified)
board.processor.cores.core.lsq0.loadToUse::overflows           39      0.00%    100.00% # Distribution of cycle latency between the first time a load is issued and its completion (Unspecified)
board.processor.cores.core.lsq0.loadToUse::min_value            2                       # Distribution of cycle latency between the first time a load is issued and its completion (Unspecified)
board.processor.cores.core.lsq0.loadToUse::max_value         1267                       # Distribution of cycle latency between the first time a load is issued and its completion (Unspecified)
board.processor.cores.core.lsq0.loadToUse::total      8086684                       # Distribution of cycle latency between the first time a load is issued and its completion (Unspecified)
board.processor.cores.core.mmu.dtb.rdAccesses      8372966                       # TLB accesses on read requests (Count)
board.processor.cores.core.mmu.dtb.wrAccesses      5212638                       # TLB accesses on write requests (Count)
board.processor.cores.core.mmu.dtb.rdMisses          105                       # TLB misses on read requests (Count)
board.processor.cores.core.mmu.dtb.wrMisses           61                       # TLB misses on write requests (Count)
board.processor.cores.core.mmu.dtb.walker.power_state.pwrStateResidencyTicks::UNDEFINED   8916774300                       # Cumulative time (in ticks) in various power states (Tick)
board.processor.cores.core.mmu.itb.rdAccesses            0                       # TLB accesses on read requests (Count)
board.processor.cores.core.mmu.itb.wrAccesses      5249582                       # TLB accesses on write requests (Count)
board.processor.cores.core.mmu.itb.rdMisses            0                       # TLB misses on read requests (Count)
board.processor.cores.core.mmu.itb.wrMisses          121                       # TLB misses on write requests (Count)
board.processor.cores.core.mmu.itb.walker.power_state.pwrStateResidencyTicks::UNDEFINED   8916774300                       # Cumulative time (in ticks) in various power states (Tick)
board.processor.cores.core.power_state.pwrStateResidencyTicks::ON   8916774300                       # Cumulative time (in ticks) in various power states (Tick)
board.processor.cores.core.rename.squashCycles       166082                       # Number of cycles rename is squashing (Cycle)
board.processor.cores.core.rename.idleCycles      6480307                       # Number of cycles rename is idle (Cycle)
board.processor.cores.core.rename.blockCycles       893028                       # Number of cycles rename is blocking (Cycle)
board.processor.cores.core.rename.serializeStallCycles         1281                       # count of cycles rename stalled for serializing inst (Cycle)
board.processor.cores.core.rename.runCycles     18733808                       # Number of cycles rename is running (Cycle)
board.processor.cores.core.rename.unblockCycles       416238                       # Number of cycles rename is unblocking (Cycle)
board.processor.cores.core.rename.renamedInsts     68719465                       # Number of instructions processed by rename (Count)
board.processor.cores.core.rename.ROBFullEvents           20                       # Number of times rename has blocked due to ROB full (Count)
board.processor.cores.core.rename.IQFullEvents       315301                       # Number of times rename has blocked due to IQ full (Count)
board.processor.cores.core.rename.SQFullEvents        33526                       # Number of times rename has blocked due to SQ full (Count)
board.processor.cores.core.rename.renamedOperands    104294321                       # Number of destination operands rename has renamed (Count)
board.processor.cores.core.rename.lookups    212593377                       # Number of register rename lookups that rename has made (Count)
board.processor.cores.core.rename.intLookups     81410191                       # Number of integer rename lookups (Count)
board.processor.cores.core.rename.fpLookups     13454861                       # Number of floating rename lookups (Count)
board.processor.cores.core.rename.committedMaps     96870331                       # Number of HB maps that are committed (Count)
board.processor.cores.core.rename.undoneMaps      7423981                       # Number of HB maps that are undone due to squashing (Count)
board.processor.cores.core.rename.serializing           42                       # count of serializing insts renamed (Count)
board.processor.cores.core.rename.tempSerializing           42                       # count of temporary serializing insts renamed (Count)
board.processor.cores.core.rename.skidInsts       840747                       # count of insts added to the skid buffer (Count)
board.processor.cores.core.rob.reads         91568950                       # The number of ROB reads (Count)
board.processor.cores.core.rob.writes       135883920                       # The number of ROB writes (Count)
board.processor.cores.core.thread_0.numInsts     33875357                       # Number of Instructions committed (Count)
board.processor.cores.core.thread_0.numOps     63757081                       # Number of Ops committed (Count)
board.processor.cores.core.thread_0.numMemRefs            0                       # Number of Memory References (Count)
board.processor.cores.core.workload.numSyscalls           33                       # Number of system calls (Count)
board.workload.inst.arm                             0                       # number of arm instructions executed (Count)
board.workload.inst.quiesce                         0                       # number of quiesce instructions executed (Count)

---------- End Simulation Statistics   ----------
