
---------- Begin Simulation Statistics ----------
simSeconds                                   0.008129                       # Number of seconds simulated (Second)
simTicks                                   8129109087                       # Number of ticks simulated (Tick)
finalTick                                  8129109087                       # Number of ticks from beginning of simulation (restored from checkpoints and never reset) (Tick)
simFreq                                  1000000000000                       # The number of ticks per simulated second ((Tick/Second))
hostSeconds                                     89.70                       # Real time elapsed on the host (Second)
hostTickRate                                 90627337                       # The number of ticks simulated per host second (ticks/s) ((Tick/Second))
hostMemory                                    2526936                       # Number of bytes of host memory used (Byte)
simInsts                                     16896977                       # Number of instructions simulated (Count)
simOps                                       34971726                       # Number of ops (including micro ops) simulated (Count)
hostInstRate                                   188376                       # Simulator instruction rate (inst/s) ((Count/Second))
hostOpRate                                     389882                       # Simulator op (including micro ops) rate (op/s) ((Count/Second))
board.cache_hierarchy.ruby_system.delayHistogram::bucket_size            8                       # delay histogram for all message (Unspecified)
board.cache_hierarchy.ruby_system.delayHistogram::max_bucket           79                       # delay histogram for all message (Unspecified)
board.cache_hierarchy.ruby_system.delayHistogram::samples      1000936                       # delay histogram for all message (Unspecified)
board.cache_hierarchy.ruby_system.delayHistogram::mean     0.635451                       # delay histogram for all message (Unspecified)
board.cache_hierarchy.ruby_system.delayHistogram::stdev     2.327578                       # delay histogram for all message (Unspecified)
board.cache_hierarchy.ruby_system.delayHistogram |      936671     93.58%     93.58% |       58799      5.87%     99.45% |        5450      0.54%    100.00% |           4      0.00%    100.00% |           6      0.00%    100.00% |           2      0.00%    100.00% |           4      0.00%    100.00% |           0      0.00%    100.00% |           0      0.00%    100.00% |           0      0.00%    100.00% # delay histogram for all message (Unspecified)
board.cache_hierarchy.ruby_system.delayHistogram::total      1000936                       # delay histogram for all message (Unspecified)
board.cache_hierarchy.ruby_system.m_outstandReqHistSeqr::bucket_size            2                       (Unspecified)
board.cache_hierarchy.ruby_system.m_outstandReqHistSeqr::max_bucket           19                       (Unspecified)
board.cache_hierarchy.ruby_system.m_outstandReqHistSeqr::samples     10129894                       (Unspecified)
board.cache_hierarchy.ruby_system.m_outstandReqHistSeqr::mean     1.834228                       (Unspecified)
board.cache_hierarchy.ruby_system.m_outstandReqHistSeqr::gmean     1.526146                       (Unspecified)
board.cache_hierarchy.ruby_system.m_outstandReqHistSeqr::stdev     1.605297                       (Unspecified)
board.cache_hierarchy.ruby_system.m_outstandReqHistSeqr |     5598857     55.27%     55.27% |     3918761     38.69%     93.96% |      426862      4.21%     98.17% |       51904      0.51%     98.68% |       24109      0.24%     98.92% |       17244      0.17%     99.09% |       26879      0.27%     99.36% |       51072      0.50%     99.86% |       14206      0.14%    100.00% |           0      0.00%    100.00% (Unspecified)
board.cache_hierarchy.ruby_system.m_outstandReqHistSeqr::total     10129894                       (Unspecified)
board.cache_hierarchy.ruby_system.m_latencyHistSeqr::bucket_size          256                       (Unspecified)
board.cache_hierarchy.ruby_system.m_latencyHistSeqr::max_bucket         2559                       (Unspecified)
board.cache_hierarchy.ruby_system.m_latencyHistSeqr::samples     10158478                       (Unspecified)
board.cache_hierarchy.ruby_system.m_latencyHistSeqr::mean     2.880403                       (Unspecified)
board.cache_hierarchy.ruby_system.m_latencyHistSeqr::gmean     1.070614                       (Unspecified)
board.cache_hierarchy.ruby_system.m_latencyHistSeqr::stdev    21.927316                       (Unspecified)
board.cache_hierarchy.ruby_system.m_latencyHistSeqr |    10153702     99.95%     99.95% |        3388      0.03%     99.99% |         188      0.00%     99.99% |         232      0.00%     99.99% |         909      0.01%    100.00% |          51      0.00%    100.00% |           8      0.00%    100.00% |           0      0.00%    100.00% |           0      0.00%    100.00% |           0      0.00%    100.00% (Unspecified)
board.cache_hierarchy.ruby_system.m_latencyHistSeqr::total     10158478                       (Unspecified)
board.cache_hierarchy.ruby_system.m_hitLatencyHistSeqr::bucket_size            2                       (Unspecified)
board.cache_hierarchy.ruby_system.m_hitLatencyHistSeqr::max_bucket           19                       (Unspecified)
board.cache_hierarchy.ruby_system.m_hitLatencyHistSeqr::samples      9994353                       (Unspecified)
board.cache_hierarchy.ruby_system.m_hitLatencyHistSeqr::mean     1.002940                       (Unspecified)
board.cache_hierarchy.ruby_system.m_hitLatencyHistSeqr::gmean     1.002039                       (Unspecified)
board.cache_hierarchy.ruby_system.m_hitLatencyHistSeqr::stdev     0.054386                       (Unspecified)
board.cache_hierarchy.ruby_system.m_hitLatencyHistSeqr |     9964988     99.71%     99.71% |       29362      0.29%    100.00% |           0      0.00%    100.00% |           2      0.00%    100.00% |           0      0.00%    100.00% |           0      0.00%    100.00% |           0      0.00%    100.00% |           0      0.00%    100.00% |           1      0.00%    100.00% |           0      0.00%    100.00% (Unspecified)
board.cache_hierarchy.ruby_system.m_hitLatencyHistSeqr::total      9994353                       (Unspecified)
board.cache_hierarchy.ruby_system.m_missLatencyHistSeqr::bucket_size          256                       (Unspecified)
board.cache_hierarchy.ruby_system.m_missLatencyHistSeqr::max_bucket         2559                       (Unspecified)
board.cache_hierarchy.ruby_system.m_missLatencyHistSeqr::samples       164125                       (Unspecified)
board.cache_hierarchy.ruby_system.m_missLatencyHistSeqr::mean   117.208024                       (Unspecified)
board.cache_hierarchy.ruby_system.m_missLatencyHistSeqr::gmean    60.292479                       (Unspecified)
board.cache_hierarchy.ruby_system.m_missLatencyHistSeqr::stdev   128.350741                       (Unspecified)
board.cache_hierarchy.ruby_system.m_missLatencyHistSeqr |      159349     97.09%     97.09% |        3388      2.06%     99.15% |         188      0.11%     99.27% |         232      0.14%     99.41% |         909      0.55%     99.96% |          51      0.03%    100.00% |           8      0.00%    100.00% |           0      0.00%    100.00% |           0      0.00%    100.00% |           0      0.00%    100.00% (Unspecified)
board.cache_hierarchy.ruby_system.m_missLatencyHistSeqr::total       164125                       (Unspecified)
board.cache_hierarchy.ruby_system.delayVCHist.vnet_0::bucket_size            8                       # delay histogram for vnet_0 (Unspecified)
board.cache_hierarchy.ruby_system.delayVCHist.vnet_0::max_bucket           79                       # delay histogram for vnet_0 (Unspecified)
board.cache_hierarchy.ruby_system.delayVCHist.vnet_0::samples       488797                       # delay histogram for vnet_0 (Unspecified)
board.cache_hierarchy.ruby_system.delayVCHist.vnet_0::mean     1.212025                       # delay histogram for vnet_0 (Unspecified)
board.cache_hierarchy.ruby_system.delayVCHist.vnet_0::stdev     3.134651                       # delay histogram for vnet_0 (Unspecified)
board.cache_hierarchy.ruby_system.delayVCHist.vnet_0 |      428023     87.57%     87.57% |       55317     11.32%     98.88% |        5442      1.11%    100.00% |           3      0.00%    100.00% |           6      0.00%    100.00% |           2      0.00%    100.00% |           4      0.00%    100.00% |           0      0.00%    100.00% |           0      0.00%    100.00% |           0      0.00%    100.00% # delay histogram for vnet_0 (Unspecified)
board.cache_hierarchy.ruby_system.delayVCHist.vnet_0::total       488797                       # delay histogram for vnet_0 (Unspecified)
board.cache_hierarchy.ruby_system.delayVCHist.vnet_1::bucket_size            4                       # delay histogram for vnet_1 (Unspecified)
board.cache_hierarchy.ruby_system.delayVCHist.vnet_1::max_bucket           39                       # delay histogram for vnet_1 (Unspecified)
board.cache_hierarchy.ruby_system.delayVCHist.vnet_1::samples       510531                       # delay histogram for vnet_1 (Unspecified)
board.cache_hierarchy.ruby_system.delayVCHist.vnet_1::mean     0.085421                       # delay histogram for vnet_1 (Unspecified)
board.cache_hierarchy.ruby_system.delayVCHist.vnet_1::stdev     0.769320                       # delay histogram for vnet_1 (Unspecified)
board.cache_hierarchy.ruby_system.delayVCHist.vnet_1 |      504300     98.78%     98.78% |        2740      0.54%     99.32% |        3449      0.68%     99.99% |          33      0.01%    100.00% |           8      0.00%    100.00% |           0      0.00%    100.00% |           1      0.00%    100.00% |           0      0.00%    100.00% |           0      0.00%    100.00% |           0      0.00%    100.00% # delay histogram for vnet_1 (Unspecified)
board.cache_hierarchy.ruby_system.delayVCHist.vnet_1::total       510531                       # delay histogram for vnet_1 (Unspecified)
board.cache_hierarchy.ruby_system.delayVCHist.vnet_2::bucket_size            1                       # delay histogram for vnet_2 (Unspecified)
board.cache_hierarchy.ruby_system.delayVCHist.vnet_2::max_bucket            9                       # delay histogram for vnet_2 (Unspecified)
board.cache_hierarchy.ruby_system.delayVCHist.vnet_2::samples         1608                       # delay histogram for vnet_2 (Unspecified)
board.cache_hierarchy.ruby_system.delayVCHist.vnet_2::mean     0.001244                       # delay histogram for vnet_2 (Unspecified)
board.cache_hierarchy.ruby_system.delayVCHist.vnet_2::stdev     0.049875                       # delay histogram for vnet_2 (Unspecified)
board.cache_hierarchy.ruby_system.delayVCHist.vnet_2 |        1607     99.94%     99.94% |           0      0.00%     99.94% |           1      0.06%    100.00% |           0      0.00%    100.00% |           0      0.00%    100.00% |           0      0.00%    100.00% |           0      0.00%    100.00% |           0      0.00%    100.00% |           0      0.00%    100.00% |           0      0.00%    100.00% # delay histogram for vnet_2 (Unspecified)
board.cache_hierarchy.ruby_system.delayVCHist.vnet_2::total         1608                       # delay histogram for vnet_2 (Unspecified)
board.cache_hierarchy.ruby_system.Directory_Controller.Fetch        93395      0.00%      0.00% (Unspecified)
board.cache_hierarchy.ruby_system.Directory_Controller.Data        40291      0.00%      0.00% (Unspecified)
board.cache_hierarchy.ruby_system.Directory_Controller.Memory_Data        93395      0.00%      0.00% (Unspecified)
board.cache_hierarchy.ruby_system.Directory_Controller.Memory_Ack        40291      0.00%      0.00% (Unspecified)
board.cache_hierarchy.ruby_system.Directory_Controller.CleanReplacement        49008      0.00%      0.00% (Unspecified)
board.cache_hierarchy.ruby_system.Directory_Controller.I.Fetch        93395      0.00%      0.00% (Unspecified)
board.cache_hierarchy.ruby_system.Directory_Controller.M.Data        40291      0.00%      0.00% (Unspecified)
board.cache_hierarchy.ruby_system.Directory_Controller.M.CleanReplacement        49008      0.00%      0.00% (Unspecified)
board.cache_hierarchy.ruby_system.Directory_Controller.IM.Memory_Data        93395      0.00%      0.00% (Unspecified)
board.cache_hierarchy.ruby_system.Directory_Controller.MI.Memory_Ack        40291      0.00%      0.00% (Unspecified)
board.cache_hierarchy.ruby_system.L1Cache_Controller.Load      3988562      0.00%      0.00% (Unspecified)
board.cache_hierarchy.ruby_system.L1Cache_Controller.Ifetch      3626291      0.00%      0.00% (Unspecified)
board.cache_hierarchy.ruby_system.L1Cache_Controller.Store      2543641      0.00%      0.00% (Unspecified)
board.cache_hierarchy.ruby_system.L1Cache_Controller.Inv         1608      0.00%      0.00% (Unspecified)
board.cache_hierarchy.ruby_system.L1Cache_Controller.L1_Replacement       162884      0.00%      0.00% (Unspecified)
board.cache_hierarchy.ruby_system.L1Cache_Controller.Data_Exclusive       136238      0.00%      0.00% (Unspecified)
board.cache_hierarchy.ruby_system.L1Cache_Controller.Data_all_Acks        27884      0.00%      0.00% (Unspecified)
board.cache_hierarchy.ruby_system.L1Cache_Controller.Ack_all            3      0.00%      0.00% (Unspecified)
board.cache_hierarchy.ruby_system.L1Cache_Controller.WB_Ack       162104      0.00%      0.00% (Unspecified)
board.cache_hierarchy.ruby_system.L1Cache_Controller.NP.Load       136095      0.00%      0.00% (Unspecified)
board.cache_hierarchy.ruby_system.L1Cache_Controller.NP.Ifetch          989      0.00%      0.00% (Unspecified)
board.cache_hierarchy.ruby_system.L1Cache_Controller.NP.Store        26312      0.00%      0.00% (Unspecified)
board.cache_hierarchy.ruby_system.L1Cache_Controller.NP.Inv          526      0.00%      0.00% (Unspecified)
board.cache_hierarchy.ruby_system.L1Cache_Controller.I.Load          147      0.00%      0.00% (Unspecified)
board.cache_hierarchy.ruby_system.L1Cache_Controller.I.Ifetch          566      0.00%      0.00% (Unspecified)
board.cache_hierarchy.ruby_system.L1Cache_Controller.I.Store           14      0.00%      0.00% (Unspecified)
board.cache_hierarchy.ruby_system.L1Cache_Controller.I.L1_Replacement          217      0.00%      0.00% (Unspecified)
board.cache_hierarchy.ruby_system.L1Cache_Controller.S.Load           20      0.00%      0.00% (Unspecified)
board.cache_hierarchy.ruby_system.L1Cache_Controller.S.Ifetch      3624732      0.00%      0.00% (Unspecified)
board.cache_hierarchy.ruby_system.L1Cache_Controller.S.Store            3      0.00%      0.00% (Unspecified)
board.cache_hierarchy.ruby_system.L1Cache_Controller.S.Inv          862      0.00%      0.00% (Unspecified)
board.cache_hierarchy.ruby_system.L1Cache_Controller.S.L1_Replacement          563      0.00%      0.00% (Unspecified)
board.cache_hierarchy.ruby_system.L1Cache_Controller.E.Load      1802046      0.00%      0.00% (Unspecified)
board.cache_hierarchy.ruby_system.L1Cache_Controller.E.Store        32150      0.00%      0.00% (Unspecified)
board.cache_hierarchy.ruby_system.L1Cache_Controller.E.Inv          132      0.00%      0.00% (Unspecified)
board.cache_hierarchy.ruby_system.L1Cache_Controller.E.L1_Replacement       103749      0.00%      0.00% (Unspecified)
board.cache_hierarchy.ruby_system.L1Cache_Controller.M.Load      2050249      0.00%      0.00% (Unspecified)
board.cache_hierarchy.ruby_system.L1Cache_Controller.M.Store      2485156      0.00%      0.00% (Unspecified)
board.cache_hierarchy.ruby_system.L1Cache_Controller.M.Inv           88      0.00%      0.00% (Unspecified)
board.cache_hierarchy.ruby_system.L1Cache_Controller.M.L1_Replacement        58355      0.00%      0.00% (Unspecified)
board.cache_hierarchy.ruby_system.L1Cache_Controller.IS.Data_Exclusive       136238      0.00%      0.00% (Unspecified)
board.cache_hierarchy.ruby_system.L1Cache_Controller.IS.Data_all_Acks         1558      0.00%      0.00% (Unspecified)
board.cache_hierarchy.ruby_system.L1Cache_Controller.IM.Data_all_Acks        26326      0.00%      0.00% (Unspecified)
board.cache_hierarchy.ruby_system.L1Cache_Controller.SM.Ack_all            3      0.00%      0.00% (Unspecified)
board.cache_hierarchy.ruby_system.L1Cache_Controller.M_I.Load            5      0.00%      0.00% (Unspecified)
board.cache_hierarchy.ruby_system.L1Cache_Controller.M_I.Ifetch            4      0.00%      0.00% (Unspecified)
board.cache_hierarchy.ruby_system.L1Cache_Controller.M_I.Store            6      0.00%      0.00% (Unspecified)
board.cache_hierarchy.ruby_system.L1Cache_Controller.M_I.WB_Ack       162104      0.00%      0.00% (Unspecified)
board.cache_hierarchy.ruby_system.L2Cache_Controller.L1_GET_INSTR         1601      0.00%      0.00% (Unspecified)
board.cache_hierarchy.ruby_system.L2Cache_Controller.L1_GETS       136265      0.00%      0.00% (Unspecified)
board.cache_hierarchy.ruby_system.L2Cache_Controller.L1_GETX        26327      0.00%      0.00% (Unspecified)
board.cache_hierarchy.ruby_system.L2Cache_Controller.L1_UPGRADE            3      0.00%      0.00% (Unspecified)
board.cache_hierarchy.ruby_system.L2Cache_Controller.L1_PUTX       162104      0.00%      0.00% (Unspecified)
board.cache_hierarchy.ruby_system.L2Cache_Controller.L2_Replacement        40222      0.00%      0.00% (Unspecified)
board.cache_hierarchy.ruby_system.L2Cache_Controller.L2_Replacement_clean        49078      0.00%      0.00% (Unspecified)
board.cache_hierarchy.ruby_system.L2Cache_Controller.Mem_Data        93395      0.00%      0.00% (Unspecified)
board.cache_hierarchy.ruby_system.L2Cache_Controller.Mem_Ack        89299      0.00%      0.00% (Unspecified)
board.cache_hierarchy.ruby_system.L2Cache_Controller.WB_Data           88      0.00%      0.00% (Unspecified)
board.cache_hierarchy.ruby_system.L2Cache_Controller.Ack_all         1520      0.00%      0.00% (Unspecified)
board.cache_hierarchy.ruby_system.L2Cache_Controller.Exclusive_Unblock       162567      0.00%      0.00% (Unspecified)
board.cache_hierarchy.ruby_system.L2Cache_Controller.NP.L1_GET_INSTR         1520      0.00%      0.00% (Unspecified)
board.cache_hierarchy.ruby_system.L2Cache_Controller.NP.L1_GETS        75372      0.00%      0.00% (Unspecified)
board.cache_hierarchy.ruby_system.L2Cache_Controller.NP.L1_GETX        16504      0.00%      0.00% (Unspecified)
board.cache_hierarchy.ruby_system.L2Cache_Controller.SS.L1_GET_INSTR           31      0.00%      0.00% (Unspecified)
board.cache_hierarchy.ruby_system.L2Cache_Controller.SS.L1_GETS            4      0.00%      0.00% (Unspecified)
board.cache_hierarchy.ruby_system.L2Cache_Controller.SS.L1_GETX            1      0.00%      0.00% (Unspecified)
board.cache_hierarchy.ruby_system.L2Cache_Controller.SS.L1_UPGRADE            3      0.00%      0.00% (Unspecified)
board.cache_hierarchy.ruby_system.L2Cache_Controller.SS.L2_Replacement_clean         1388      0.00%      0.00% (Unspecified)
board.cache_hierarchy.ruby_system.L2Cache_Controller.M.L1_GET_INSTR            4      0.00%      0.00% (Unspecified)
board.cache_hierarchy.ruby_system.L2Cache_Controller.M.L1_GETS        60866      0.00%      0.00% (Unspecified)
board.cache_hierarchy.ruby_system.L2Cache_Controller.M.L1_GETX         9821      0.00%      0.00% (Unspecified)
board.cache_hierarchy.ruby_system.L2Cache_Controller.M.L2_Replacement        40181      0.00%      0.00% (Unspecified)
board.cache_hierarchy.ruby_system.L2Cache_Controller.M.L2_Replacement_clean        47511      0.00%      0.00% (Unspecified)
board.cache_hierarchy.ruby_system.L2Cache_Controller.MT.L1_PUTX       162104      0.00%      0.00% (Unspecified)
board.cache_hierarchy.ruby_system.L2Cache_Controller.MT.L2_Replacement           41      0.00%      0.00% (Unspecified)
board.cache_hierarchy.ruby_system.L2Cache_Controller.MT.L2_Replacement_clean          179      0.00%      0.00% (Unspecified)
board.cache_hierarchy.ruby_system.L2Cache_Controller.M_I.L1_GET_INSTR           46      0.00%      0.00% (Unspecified)
board.cache_hierarchy.ruby_system.L2Cache_Controller.M_I.L1_GETS           23      0.00%      0.00% (Unspecified)
board.cache_hierarchy.ruby_system.L2Cache_Controller.M_I.L1_GETX            1      0.00%      0.00% (Unspecified)
board.cache_hierarchy.ruby_system.L2Cache_Controller.M_I.Mem_Ack        89299      0.00%      0.00% (Unspecified)
board.cache_hierarchy.ruby_system.L2Cache_Controller.MT_I.WB_Data           19      0.00%      0.00% (Unspecified)
board.cache_hierarchy.ruby_system.L2Cache_Controller.MT_I.Ack_all           22      0.00%      0.00% (Unspecified)
board.cache_hierarchy.ruby_system.L2Cache_Controller.MCT_I.WB_Data           69      0.00%      0.00% (Unspecified)
board.cache_hierarchy.ruby_system.L2Cache_Controller.MCT_I.Ack_all          110      0.00%      0.00% (Unspecified)
board.cache_hierarchy.ruby_system.L2Cache_Controller.I_I.Ack_all         1388      0.00%      0.00% (Unspecified)
board.cache_hierarchy.ruby_system.L2Cache_Controller.ISS.Mem_Data        75372      0.00%      0.00% (Unspecified)
board.cache_hierarchy.ruby_system.L2Cache_Controller.IS.Mem_Data         1519      0.00%      0.00% (Unspecified)
board.cache_hierarchy.ruby_system.L2Cache_Controller.IM.Mem_Data        16504      0.00%      0.00% (Unspecified)
board.cache_hierarchy.ruby_system.L2Cache_Controller.SS_MB.Exclusive_Unblock            4      0.00%      0.00% (Unspecified)
board.cache_hierarchy.ruby_system.L2Cache_Controller.MT_MB.Exclusive_Unblock       162563      0.00%      0.00% (Unspecified)
board.cache_hierarchy.ruby_system.RequestType.LD.latency_hist_seqr::bucket_size          256                       (Unspecified)
board.cache_hierarchy.ruby_system.RequestType.LD.latency_hist_seqr::max_bucket         2559                       (Unspecified)
board.cache_hierarchy.ruby_system.RequestType.LD.latency_hist_seqr::samples      3988557                       (Unspecified)
board.cache_hierarchy.ruby_system.RequestType.LD.latency_hist_seqr::mean     4.947574                       (Unspecified)
board.cache_hierarchy.ruby_system.RequestType.LD.latency_hist_seqr::gmean     1.149120                       (Unspecified)
board.cache_hierarchy.ruby_system.RequestType.LD.latency_hist_seqr::stdev    31.650532                       (Unspecified)
board.cache_hierarchy.ruby_system.RequestType.LD.latency_hist_seqr |     3984762     99.90%     99.90% |        2715      0.07%     99.97% |         141      0.00%     99.98% |         153      0.00%     99.98% |         735      0.02%    100.00% |          45      0.00%    100.00% |           6      0.00%    100.00% |           0      0.00%    100.00% |           0      0.00%    100.00% |           0      0.00%    100.00% (Unspecified)
board.cache_hierarchy.ruby_system.RequestType.LD.latency_hist_seqr::total      3988557                       (Unspecified)
board.cache_hierarchy.ruby_system.RequestType.LD.hit_latency_hist_seqr::bucket_size            1                       (Unspecified)
board.cache_hierarchy.ruby_system.RequestType.LD.hit_latency_hist_seqr::max_bucket            9                       (Unspecified)
board.cache_hierarchy.ruby_system.RequestType.LD.hit_latency_hist_seqr::samples      3852315                       (Unspecified)
board.cache_hierarchy.ruby_system.RequestType.LD.hit_latency_hist_seqr::mean     1.000018                       (Unspecified)
board.cache_hierarchy.ruby_system.RequestType.LD.hit_latency_hist_seqr::gmean     1.000012                       (Unspecified)
board.cache_hierarchy.ruby_system.RequestType.LD.hit_latency_hist_seqr::stdev     0.004232                       (Unspecified)
board.cache_hierarchy.ruby_system.RequestType.LD.hit_latency_hist_seqr |           0      0.00%      0.00% |     3852246    100.00%    100.00% |          69      0.00%    100.00% |           0      0.00%    100.00% |           0      0.00%    100.00% |           0      0.00%    100.00% |           0      0.00%    100.00% |           0      0.00%    100.00% |           0      0.00%    100.00% |           0      0.00%    100.00% (Unspecified)
board.cache_hierarchy.ruby_system.RequestType.LD.hit_latency_hist_seqr::total      3852315                       (Unspecified)
board.cache_hierarchy.ruby_system.RequestType.LD.miss_latency_hist_seqr::bucket_size          256                       (Unspecified)
board.cache_hierarchy.ruby_system.RequestType.LD.miss_latency_hist_seqr::max_bucket         2559                       (Unspecified)
board.cache_hierarchy.ruby_system.RequestType.LD.miss_latency_hist_seqr::samples       136242                       (Unspecified)
board.cache_hierarchy.ruby_system.RequestType.LD.miss_latency_hist_seqr::mean   116.566830                       (Unspecified)
board.cache_hierarchy.ruby_system.RequestType.LD.miss_latency_hist_seqr::gmean    58.489277                       (Unspecified)
board.cache_hierarchy.ruby_system.RequestType.LD.miss_latency_hist_seqr::stdev   128.170107                       (Unspecified)
board.cache_hierarchy.ruby_system.RequestType.LD.miss_latency_hist_seqr |      132447     97.21%     97.21% |        2715      1.99%     99.21% |         141      0.10%     99.31% |         153      0.11%     99.42% |         735      0.54%     99.96% |          45      0.03%    100.00% |           6      0.00%    100.00% |           0      0.00%    100.00% |           0      0.00%    100.00% |           0      0.00%    100.00% (Unspecified)
board.cache_hierarchy.ruby_system.RequestType.LD.miss_latency_hist_seqr::total       136242                       (Unspecified)
board.cache_hierarchy.ruby_system.RequestType.ST.latency_hist_seqr::bucket_size          256                       (Unspecified)
board.cache_hierarchy.ruby_system.RequestType.ST.latency_hist_seqr::max_bucket         2559                       (Unspecified)
board.cache_hierarchy.ruby_system.RequestType.ST.latency_hist_seqr::samples      2495601                       (Unspecified)
board.cache_hierarchy.ruby_system.RequestType.ST.latency_hist_seqr::mean     2.085741                       (Unspecified)
board.cache_hierarchy.ruby_system.RequestType.ST.latency_hist_seqr::gmean     1.049668                       (Unspecified)
board.cache_hierarchy.ruby_system.RequestType.ST.latency_hist_seqr::stdev    16.638007                       (Unspecified)
board.cache_hierarchy.ruby_system.RequestType.ST.latency_hist_seqr |     2494800     99.97%     99.97% |         529      0.02%     99.99% |          46      0.00%     99.99% |          78      0.00%     99.99% |         143      0.01%    100.00% |           3      0.00%    100.00% |           2      0.00%    100.00% |           0      0.00%    100.00% |           0      0.00%    100.00% |           0      0.00%    100.00% (Unspecified)
board.cache_hierarchy.ruby_system.RequestType.ST.latency_hist_seqr::total      2495601                       (Unspecified)
board.cache_hierarchy.ruby_system.RequestType.ST.hit_latency_hist_seqr::bucket_size            2                       (Unspecified)
board.cache_hierarchy.ruby_system.RequestType.ST.hit_latency_hist_seqr::max_bucket           19                       (Unspecified)
board.cache_hierarchy.ruby_system.RequestType.ST.hit_latency_hist_seqr::samples      2471154                       (Unspecified)
board.cache_hierarchy.ruby_system.RequestType.ST.hit_latency_hist_seqr::mean     1.011831                       (Unspecified)
board.cache_hierarchy.ruby_system.RequestType.ST.hit_latency_hist_seqr::gmean     1.008229                       (Unspecified)
board.cache_hierarchy.ruby_system.RequestType.ST.hit_latency_hist_seqr::stdev     0.108608                       (Unspecified)
board.cache_hierarchy.ruby_system.RequestType.ST.hit_latency_hist_seqr |     2441942     98.82%     98.82% |       29209      1.18%    100.00% |           0      0.00%    100.00% |           2      0.00%    100.00% |           0      0.00%    100.00% |           0      0.00%    100.00% |           0      0.00%    100.00% |           0      0.00%    100.00% |           1      0.00%    100.00% |           0      0.00%    100.00% (Unspecified)
board.cache_hierarchy.ruby_system.RequestType.ST.hit_latency_hist_seqr::total      2471154                       (Unspecified)
board.cache_hierarchy.ruby_system.RequestType.ST.miss_latency_hist_seqr::bucket_size          256                       (Unspecified)
board.cache_hierarchy.ruby_system.RequestType.ST.miss_latency_hist_seqr::max_bucket         2559                       (Unspecified)
board.cache_hierarchy.ruby_system.RequestType.ST.miss_latency_hist_seqr::samples        24447                       (Unspecified)
board.cache_hierarchy.ruby_system.RequestType.ST.miss_latency_hist_seqr::mean   110.638851                       (Unspecified)
board.cache_hierarchy.ruby_system.RequestType.ST.miss_latency_hist_seqr::gmean    61.554702                       (Unspecified)
board.cache_hierarchy.ruby_system.RequestType.ST.miss_latency_hist_seqr::stdev   127.897655                       (Unspecified)
board.cache_hierarchy.ruby_system.RequestType.ST.miss_latency_hist_seqr |       23646     96.72%     96.72% |         529      2.16%     98.89% |          46      0.19%     99.08% |          78      0.32%     99.39% |         143      0.58%     99.98% |           3      0.01%     99.99% |           2      0.01%    100.00% |           0      0.00%    100.00% |           0      0.00%    100.00% |           0      0.00%    100.00% (Unspecified)
board.cache_hierarchy.ruby_system.RequestType.ST.miss_latency_hist_seqr::total        24447                       (Unspecified)
board.cache_hierarchy.ruby_system.RequestType.IFETCH.latency_hist_seqr::bucket_size          256                       (Unspecified)
board.cache_hierarchy.ruby_system.RequestType.IFETCH.latency_hist_seqr::max_bucket         2559                       (Unspecified)
board.cache_hierarchy.ruby_system.RequestType.IFETCH.latency_hist_seqr::samples      3626286                       (Unspecified)
board.cache_hierarchy.ruby_system.RequestType.IFETCH.latency_hist_seqr::mean     1.074591                       (Unspecified)
board.cache_hierarchy.ruby_system.RequestType.IFETCH.latency_hist_seqr::gmean     1.002174                       (Unspecified)
board.cache_hierarchy.ruby_system.RequestType.IFETCH.latency_hist_seqr::stdev     4.242229                       (Unspecified)
board.cache_hierarchy.ruby_system.RequestType.IFETCH.latency_hist_seqr |     3626233    100.00%    100.00% |          38      0.00%    100.00% |           0      0.00%    100.00% |           1      0.00%    100.00% |          13      0.00%    100.00% |           1      0.00%    100.00% |           0      0.00%    100.00% |           0      0.00%    100.00% |           0      0.00%    100.00% |           0      0.00%    100.00% (Unspecified)
board.cache_hierarchy.ruby_system.RequestType.IFETCH.latency_hist_seqr::total      3626286                       (Unspecified)
board.cache_hierarchy.ruby_system.RequestType.IFETCH.hit_latency_hist_seqr::bucket_size            1                       (Unspecified)
board.cache_hierarchy.ruby_system.RequestType.IFETCH.hit_latency_hist_seqr::max_bucket            9                       (Unspecified)
board.cache_hierarchy.ruby_system.RequestType.IFETCH.hit_latency_hist_seqr::samples      3624732                       (Unspecified)
board.cache_hierarchy.ruby_system.RequestType.IFETCH.hit_latency_hist_seqr::mean            1                       (Unspecified)
board.cache_hierarchy.ruby_system.RequestType.IFETCH.hit_latency_hist_seqr::gmean            1                       (Unspecified)
board.cache_hierarchy.ruby_system.RequestType.IFETCH.hit_latency_hist_seqr |           0      0.00%      0.00% |     3624732    100.00%    100.00% |           0      0.00%    100.00% |           0      0.00%    100.00% |           0      0.00%    100.00% |           0      0.00%    100.00% |           0      0.00%    100.00% |           0      0.00%    100.00% |           0      0.00%    100.00% |           0      0.00%    100.00% (Unspecified)
board.cache_hierarchy.ruby_system.RequestType.IFETCH.hit_latency_hist_seqr::total      3624732                       (Unspecified)
board.cache_hierarchy.ruby_system.RequestType.IFETCH.miss_latency_hist_seqr::bucket_size          256                       (Unspecified)
board.cache_hierarchy.ruby_system.RequestType.IFETCH.miss_latency_hist_seqr::max_bucket         2559                       (Unspecified)
board.cache_hierarchy.ruby_system.RequestType.IFETCH.miss_latency_hist_seqr::samples         1554                       (Unspecified)
board.cache_hierarchy.ruby_system.RequestType.IFETCH.miss_latency_hist_seqr::mean   175.059846                       (Unspecified)
board.cache_hierarchy.ruby_system.RequestType.IFETCH.miss_latency_hist_seqr::gmean   158.910532                       (Unspecified)
board.cache_hierarchy.ruby_system.RequestType.IFETCH.miss_latency_hist_seqr::stdev   108.253624                       (Unspecified)
board.cache_hierarchy.ruby_system.RequestType.IFETCH.miss_latency_hist_seqr |        1501     96.59%     96.59% |          38      2.45%     99.03% |           0      0.00%     99.03% |           1      0.06%     99.10% |          13      0.84%     99.94% |           1      0.06%    100.00% |           0      0.00%    100.00% |           0      0.00%    100.00% |           0      0.00%    100.00% |           0      0.00%    100.00% (Unspecified)
board.cache_hierarchy.ruby_system.RequestType.IFETCH.miss_latency_hist_seqr::total         1554                       (Unspecified)
board.cache_hierarchy.ruby_system.RequestType.RMW_Read.latency_hist_seqr::bucket_size          256                       (Unspecified)
board.cache_hierarchy.ruby_system.RequestType.RMW_Read.latency_hist_seqr::max_bucket         2559                       (Unspecified)
board.cache_hierarchy.ruby_system.RequestType.RMW_Read.latency_hist_seqr::samples        47974                       (Unspecified)
board.cache_hierarchy.ruby_system.RequestType.RMW_Read.latency_hist_seqr::mean     8.838058                       (Unspecified)
board.cache_hierarchy.ruby_system.RequestType.RMW_Read.latency_hist_seqr::gmean     1.228589                       (Unspecified)
board.cache_hierarchy.ruby_system.RequestType.RMW_Read.latency_hist_seqr::stdev    45.717146                       (Unspecified)
board.cache_hierarchy.ruby_system.RequestType.RMW_Read.latency_hist_seqr |       47848     99.74%     99.74% |         105      0.22%     99.96% |           1      0.00%     99.96% |           0      0.00%     99.96% |          18      0.04%    100.00% |           2      0.00%    100.00% |           0      0.00%    100.00% |           0      0.00%    100.00% |           0      0.00%    100.00% |           0      0.00%    100.00% (Unspecified)
board.cache_hierarchy.ruby_system.RequestType.RMW_Read.latency_hist_seqr::total        47974                       (Unspecified)
board.cache_hierarchy.ruby_system.RequestType.RMW_Read.hit_latency_hist_seqr::bucket_size            1                       (Unspecified)
board.cache_hierarchy.ruby_system.RequestType.RMW_Read.hit_latency_hist_seqr::max_bucket            9                       (Unspecified)
board.cache_hierarchy.ruby_system.RequestType.RMW_Read.hit_latency_hist_seqr::samples        46096                       (Unspecified)
board.cache_hierarchy.ruby_system.RequestType.RMW_Read.hit_latency_hist_seqr::mean     1.001822                       (Unspecified)
board.cache_hierarchy.ruby_system.RequestType.RMW_Read.hit_latency_hist_seqr::gmean     1.001264                       (Unspecified)
board.cache_hierarchy.ruby_system.RequestType.RMW_Read.hit_latency_hist_seqr::stdev     0.042650                       (Unspecified)
board.cache_hierarchy.ruby_system.RequestType.RMW_Read.hit_latency_hist_seqr |           0      0.00%      0.00% |       46012     99.82%     99.82% |          84      0.18%    100.00% |           0      0.00%    100.00% |           0      0.00%    100.00% |           0      0.00%    100.00% |           0      0.00%    100.00% |           0      0.00%    100.00% |           0      0.00%    100.00% |           0      0.00%    100.00% (Unspecified)
board.cache_hierarchy.ruby_system.RequestType.RMW_Read.hit_latency_hist_seqr::total        46096                       (Unspecified)
board.cache_hierarchy.ruby_system.RequestType.RMW_Read.miss_latency_hist_seqr::bucket_size          256                       (Unspecified)
board.cache_hierarchy.ruby_system.RequestType.RMW_Read.miss_latency_hist_seqr::max_bucket         2559                       (Unspecified)
board.cache_hierarchy.ruby_system.RequestType.RMW_Read.miss_latency_hist_seqr::samples         1878                       (Unspecified)
board.cache_hierarchy.ruby_system.RequestType.RMW_Read.miss_latency_hist_seqr::mean   201.180511                       (Unspecified)
board.cache_hierarchy.ruby_system.RequestType.RMW_Read.miss_latency_hist_seqr::gmean   186.401325                       (Unspecified)
board.cache_hierarchy.ruby_system.RequestType.RMW_Read.miss_latency_hist_seqr::stdev   122.044979                       (Unspecified)
board.cache_hierarchy.ruby_system.RequestType.RMW_Read.miss_latency_hist_seqr |        1752     93.29%     93.29% |         105      5.59%     98.88% |           1      0.05%     98.94% |           0      0.00%     98.94% |          18      0.96%     99.89% |           2      0.11%    100.00% |           0      0.00%    100.00% |           0      0.00%    100.00% |           0      0.00%    100.00% |           0      0.00%    100.00% (Unspecified)
board.cache_hierarchy.ruby_system.RequestType.RMW_Read.miss_latency_hist_seqr::total         1878                       (Unspecified)
board.cache_hierarchy.ruby_system.RequestType.Locked_RMW_Read.latency_hist_seqr::bucket_size           64                       (Unspecified)
board.cache_hierarchy.ruby_system.RequestType.Locked_RMW_Read.latency_hist_seqr::max_bucket          639                       (Unspecified)
board.cache_hierarchy.ruby_system.RequestType.Locked_RMW_Read.latency_hist_seqr::samples           30                       (Unspecified)
board.cache_hierarchy.ruby_system.RequestType.Locked_RMW_Read.latency_hist_seqr::mean    28.233333                       (Unspecified)
board.cache_hierarchy.ruby_system.RequestType.Locked_RMW_Read.latency_hist_seqr::gmean     2.014009                       (Unspecified)
board.cache_hierarchy.ruby_system.RequestType.Locked_RMW_Read.latency_hist_seqr::stdev    77.441717                       (Unspecified)
board.cache_hierarchy.ruby_system.RequestType.Locked_RMW_Read.latency_hist_seqr |          26     86.67%     86.67% |           0      0.00%     86.67% |           3     10.00%     96.67% |           0      0.00%     96.67% |           0      0.00%     96.67% |           1      3.33%    100.00% |           0      0.00%    100.00% |           0      0.00%    100.00% |           0      0.00%    100.00% |           0      0.00%    100.00% (Unspecified)
board.cache_hierarchy.ruby_system.RequestType.Locked_RMW_Read.latency_hist_seqr::total           30                       (Unspecified)
board.cache_hierarchy.ruby_system.RequestType.Locked_RMW_Read.hit_latency_hist_seqr::bucket_size            1                       (Unspecified)
board.cache_hierarchy.ruby_system.RequestType.Locked_RMW_Read.hit_latency_hist_seqr::max_bucket            9                       (Unspecified)
board.cache_hierarchy.ruby_system.RequestType.Locked_RMW_Read.hit_latency_hist_seqr::samples           26                       (Unspecified)
board.cache_hierarchy.ruby_system.RequestType.Locked_RMW_Read.hit_latency_hist_seqr::mean            1                       (Unspecified)
board.cache_hierarchy.ruby_system.RequestType.Locked_RMW_Read.hit_latency_hist_seqr::gmean            1                       (Unspecified)
board.cache_hierarchy.ruby_system.RequestType.Locked_RMW_Read.hit_latency_hist_seqr |           0      0.00%      0.00% |          26    100.00%    100.00% |           0      0.00%    100.00% |           0      0.00%    100.00% |           0      0.00%    100.00% |           0      0.00%    100.00% |           0      0.00%    100.00% |           0      0.00%    100.00% |           0      0.00%    100.00% |           0      0.00%    100.00% (Unspecified)
board.cache_hierarchy.ruby_system.RequestType.Locked_RMW_Read.hit_latency_hist_seqr::total           26                       (Unspecified)
board.cache_hierarchy.ruby_system.RequestType.Locked_RMW_Read.miss_latency_hist_seqr::bucket_size           64                       (Unspecified)
board.cache_hierarchy.ruby_system.RequestType.Locked_RMW_Read.miss_latency_hist_seqr::max_bucket          639                       (Unspecified)
board.cache_hierarchy.ruby_system.RequestType.Locked_RMW_Read.miss_latency_hist_seqr::samples            4                       (Unspecified)
board.cache_hierarchy.ruby_system.RequestType.Locked_RMW_Read.miss_latency_hist_seqr::mean   205.250000                       (Unspecified)
board.cache_hierarchy.ruby_system.RequestType.Locked_RMW_Read.miss_latency_hist_seqr::gmean   190.748192                       (Unspecified)
board.cache_hierarchy.ruby_system.RequestType.Locked_RMW_Read.miss_latency_hist_seqr::stdev    98.820966                       (Unspecified)
board.cache_hierarchy.ruby_system.RequestType.Locked_RMW_Read.miss_latency_hist_seqr |           0      0.00%      0.00% |           0      0.00%      0.00% |           3     75.00%     75.00% |           0      0.00%     75.00% |           0      0.00%     75.00% |           1     25.00%    100.00% |           0      0.00%    100.00% |           0      0.00%    100.00% |           0      0.00%    100.00% |           0      0.00%    100.00% (Unspecified)
board.cache_hierarchy.ruby_system.RequestType.Locked_RMW_Read.miss_latency_hist_seqr::total            4                       (Unspecified)
board.cache_hierarchy.ruby_system.RequestType.Locked_RMW_Write.latency_hist_seqr::bucket_size            1                       (Unspecified)
board.cache_hierarchy.ruby_system.RequestType.Locked_RMW_Write.latency_hist_seqr::max_bucket            9                       (Unspecified)
board.cache_hierarchy.ruby_system.RequestType.Locked_RMW_Write.latency_hist_seqr::samples           30                       (Unspecified)
board.cache_hierarchy.ruby_system.RequestType.Locked_RMW_Write.latency_hist_seqr::mean            1                       (Unspecified)
board.cache_hierarchy.ruby_system.RequestType.Locked_RMW_Write.latency_hist_seqr::gmean            1                       (Unspecified)
board.cache_hierarchy.ruby_system.RequestType.Locked_RMW_Write.latency_hist_seqr |           0      0.00%      0.00% |          30    100.00%    100.00% |           0      0.00%    100.00% |           0      0.00%    100.00% |           0      0.00%    100.00% |           0      0.00%    100.00% |           0      0.00%    100.00% |           0      0.00%    100.00% |           0      0.00%    100.00% |           0      0.00%    100.00% (Unspecified)
board.cache_hierarchy.ruby_system.RequestType.Locked_RMW_Write.latency_hist_seqr::total           30                       (Unspecified)
board.cache_hierarchy.ruby_system.RequestType.Locked_RMW_Write.hit_latency_hist_seqr::bucket_size            1                       (Unspecified)
board.cache_hierarchy.ruby_system.RequestType.Locked_RMW_Write.hit_latency_hist_seqr::max_bucket            9                       (Unspecified)
board.cache_hierarchy.ruby_system.RequestType.Locked_RMW_Write.hit_latency_hist_seqr::samples           30                       (Unspecified)
board.cache_hierarchy.ruby_system.RequestType.Locked_RMW_Write.hit_latency_hist_seqr::mean            1                       (Unspecified)
board.cache_hierarchy.ruby_system.RequestType.Locked_RMW_Write.hit_latency_hist_seqr::gmean            1                       (Unspecified)
board.cache_hierarchy.ruby_system.RequestType.Locked_RMW_Write.hit_latency_hist_seqr |           0      0.00%      0.00% |          30    100.00%    100.00% |           0      0.00%    100.00% |           0      0.00%    100.00% |           0      0.00%    100.00% |           0      0.00%    100.00% |           0      0.00%    100.00% |           0      0.00%    100.00% |           0      0.00%    100.00% |           0      0.00%    100.00% (Unspecified)
board.cache_hierarchy.ruby_system.RequestType.Locked_RMW_Write.hit_latency_hist_seqr::total           30                       (Unspecified)
board.cache_hierarchy.ruby_system.directory_controllers.power_state.pwrStateResidencyTicks::UNDEFINED   8129109087                       # Cumulative time (in ticks) in various power states (Tick)
board.cache_hierarchy.ruby_system.directory_controllers.requestToDir.m_msg_count        93395                       # Number of messages passed the buffer (Count)
board.cache_hierarchy.ruby_system.directory_controllers.requestToDir.m_buf_msgs     0.003826                       # Average number of messages in buffer ((Count/Tick))
board.cache_hierarchy.ruby_system.directory_controllers.requestToMemory.m_msg_count       133686                       # Number of messages passed the buffer (Count)
board.cache_hierarchy.ruby_system.directory_controllers.requestToMemory.m_buf_msgs     0.005523                       # Average number of messages in buffer ((Count/Tick))
board.cache_hierarchy.ruby_system.directory_controllers.requestToMemory.m_stall_time       380619                       # Total number of ticks messages were stalled in this buffer (Tick)
board.cache_hierarchy.ruby_system.directory_controllers.requestToMemory.m_avg_stall_time     2.847112                       # Average stall ticks per message ((Tick/Count))
board.cache_hierarchy.ruby_system.directory_controllers.responseFromDir.m_msg_count       182694                       # Number of messages passed the buffer (Count)
board.cache_hierarchy.ruby_system.directory_controllers.responseFromDir.m_buf_msgs     0.007484                       # Average number of messages in buffer ((Count/Tick))
board.cache_hierarchy.ruby_system.directory_controllers.responseFromMemory.m_msg_count       133686                       # Number of messages passed the buffer (Count)
board.cache_hierarchy.ruby_system.directory_controllers.responseFromMemory.m_buf_msgs     0.008962                       # Average number of messages in buffer ((Count/Tick))
board.cache_hierarchy.ruby_system.directory_controllers.responseToDir.m_msg_count        89299                       # Number of messages passed the buffer (Count)
board.cache_hierarchy.ruby_system.directory_controllers.responseToDir.m_buf_msgs     0.003658                       # Average number of messages in buffer ((Count/Tick))
board.cache_hierarchy.ruby_system.l1_controllers.fullyBusyCycles        20191                       # cycles for which number of transistions == max transitions (Unspecified)
board.cache_hierarchy.ruby_system.l1_controllers.delayHistogram::samples       327837                       # delay_histogram (Unspecified)
board.cache_hierarchy.ruby_system.l1_controllers.delayHistogram::mean     0.129851                       # delay_histogram (Unspecified)
board.cache_hierarchy.ruby_system.l1_controllers.delayHistogram::stdev     0.949095                       # delay_histogram (Unspecified)
board.cache_hierarchy.ruby_system.l1_controllers.delayHistogram::0-3       321783     98.15%     98.15% # delay_histogram (Unspecified)
board.cache_hierarchy.ruby_system.l1_controllers.delayHistogram::4-7         2563      0.78%     98.94% # delay_histogram (Unspecified)
board.cache_hierarchy.ruby_system.l1_controllers.delayHistogram::8-11         3449      1.05%     99.99% # delay_histogram (Unspecified)
board.cache_hierarchy.ruby_system.l1_controllers.delayHistogram::12-15           33      0.01%    100.00% # delay_histogram (Unspecified)
board.cache_hierarchy.ruby_system.l1_controllers.delayHistogram::16-19            8      0.00%    100.00% # delay_histogram (Unspecified)
board.cache_hierarchy.ruby_system.l1_controllers.delayHistogram::24-27            1      0.00%    100.00% # delay_histogram (Unspecified)
board.cache_hierarchy.ruby_system.l1_controllers.delayHistogram::total       327837                       # delay_histogram (Unspecified)
board.cache_hierarchy.ruby_system.l1_controllers.L1Dcache.m_demand_hits      6369621                       # Number of cache demand hits (Unspecified)
board.cache_hierarchy.ruby_system.l1_controllers.L1Dcache.m_demand_misses       162571                       # Number of cache demand misses (Unspecified)
board.cache_hierarchy.ruby_system.l1_controllers.L1Dcache.m_demand_accesses      6532192                       # Number of cache demand accesses (Unspecified)
board.cache_hierarchy.ruby_system.l1_controllers.L1Icache.m_demand_hits      3624732                       # Number of cache demand hits (Unspecified)
board.cache_hierarchy.ruby_system.l1_controllers.L1Icache.m_demand_misses         1555                       # Number of cache demand misses (Unspecified)
board.cache_hierarchy.ruby_system.l1_controllers.L1Icache.m_demand_accesses      3626287                       # Number of cache demand accesses (Unspecified)
board.cache_hierarchy.ruby_system.l1_controllers.mandatoryQueue.m_msg_count     10158479                       # Number of messages passed the buffer (Count)
board.cache_hierarchy.ruby_system.l1_controllers.mandatoryQueue.m_buf_msgs     0.416178                       # Average number of messages in buffer ((Count/Tick))
board.cache_hierarchy.ruby_system.l1_controllers.mandatoryQueue.m_stall_time       386280                       # Total number of ticks messages were stalled in this buffer (Tick)
board.cache_hierarchy.ruby_system.l1_controllers.mandatoryQueue.m_stall_count           15                       # Number of times messages were stalled (Count)
board.cache_hierarchy.ruby_system.l1_controllers.mandatoryQueue.m_avg_stall_time     0.038025                       # Average stall ticks per message ((Tick/Count))
board.cache_hierarchy.ruby_system.l1_controllers.power_state.pwrStateResidencyTicks::UNDEFINED   8129109087                       # Cumulative time (in ticks) in various power states (Tick)
board.cache_hierarchy.ruby_system.l1_controllers.prefetcher.RubyPrefetcher.numMissObserved            0                       # Number of misses observed (Unspecified)
board.cache_hierarchy.ruby_system.l1_controllers.prefetcher.RubyPrefetcher.numAllocatedStreams            0                       # Number of streams allocated for prefetching (Unspecified)
board.cache_hierarchy.ruby_system.l1_controllers.prefetcher.RubyPrefetcher.numPrefetchRequested            0                       # Number of prefetch requests made (Unspecified)
board.cache_hierarchy.ruby_system.l1_controllers.prefetcher.RubyPrefetcher.numHits            0                       # Number of prefetched blocks accessed (for the first time) (Unspecified)
board.cache_hierarchy.ruby_system.l1_controllers.prefetcher.RubyPrefetcher.numPartialHits            0                       # Number of misses observed for a block being prefetched (Unspecified)
board.cache_hierarchy.ruby_system.l1_controllers.prefetcher.RubyPrefetcher.numPagesCrossed            0                       # Number of prefetches across pages (Unspecified)
board.cache_hierarchy.ruby_system.l1_controllers.prefetcher.RubyPrefetcher.numMissedPrefetchedBlocks            0                       # Number of misses for blocks that were prefetched, yet missed (Unspecified)
board.cache_hierarchy.ruby_system.l1_controllers.requestFromL1Cache.m_msg_count       326230                       # Number of messages passed the buffer (Count)
board.cache_hierarchy.ruby_system.l1_controllers.requestFromL1Cache.m_buf_msgs     0.026727                       # Average number of messages in buffer ((Count/Tick))
board.cache_hierarchy.ruby_system.l1_controllers.requestToL1Cache.m_msg_count         1608                       # Number of messages passed the buffer (Count)
board.cache_hierarchy.ruby_system.l1_controllers.requestToL1Cache.m_buf_msgs     0.000066                       # Average number of messages in buffer ((Count/Tick))
board.cache_hierarchy.ruby_system.l1_controllers.responseFromL1Cache.m_msg_count         1608                       # Number of messages passed the buffer (Count)
board.cache_hierarchy.ruby_system.l1_controllers.responseFromL1Cache.m_buf_msgs     0.000132                       # Average number of messages in buffer ((Count/Tick))
board.cache_hierarchy.ruby_system.l1_controllers.responseToL1Cache.m_msg_count       326229                       # Number of messages passed the buffer (Count)
board.cache_hierarchy.ruby_system.l1_controllers.responseToL1Cache.m_buf_msgs     0.013364                       # Average number of messages in buffer ((Count/Tick))
board.cache_hierarchy.ruby_system.l1_controllers.sequencer.power_state.pwrStateResidencyTicks::UNDEFINED   8129109087                       # Cumulative time (in ticks) in various power states (Tick)
board.cache_hierarchy.ruby_system.l1_controllers.unblockFromL1Cache.m_msg_count       162567                       # Number of messages passed the buffer (Count)
board.cache_hierarchy.ruby_system.l1_controllers.unblockFromL1Cache.m_buf_msgs     0.006659                       # Average number of messages in buffer ((Count/Tick))
board.cache_hierarchy.ruby_system.l2_controllers.fullyBusyCycles            6                       # cycles for which number of transistions == max transitions (Unspecified)
board.cache_hierarchy.ruby_system.l2_controllers.delayHistogram::samples       673099                       # delay_histogram (Unspecified)
board.cache_hierarchy.ruby_system.l2_controllers.delayHistogram::mean     0.881707                       # delay_histogram (Unspecified)
board.cache_hierarchy.ruby_system.l2_controllers.delayHistogram::stdev     2.726248                       # delay_histogram (Unspecified)
board.cache_hierarchy.ruby_system.l2_controllers.delayHistogram::0-7       612325     90.97%     90.97% # delay_histogram (Unspecified)
board.cache_hierarchy.ruby_system.l2_controllers.delayHistogram::8-15        55317      8.22%     99.19% # delay_histogram (Unspecified)
board.cache_hierarchy.ruby_system.l2_controllers.delayHistogram::16-23         5442      0.81%    100.00% # delay_histogram (Unspecified)
board.cache_hierarchy.ruby_system.l2_controllers.delayHistogram::24-31            3      0.00%    100.00% # delay_histogram (Unspecified)
board.cache_hierarchy.ruby_system.l2_controllers.delayHistogram::32-39            6      0.00%    100.00% # delay_histogram (Unspecified)
board.cache_hierarchy.ruby_system.l2_controllers.delayHistogram::40-47            2      0.00%    100.00% # delay_histogram (Unspecified)
board.cache_hierarchy.ruby_system.l2_controllers.delayHistogram::48-55            4      0.00%    100.00% # delay_histogram (Unspecified)
board.cache_hierarchy.ruby_system.l2_controllers.delayHistogram::total       673099                       # delay_histogram (Unspecified)
board.cache_hierarchy.ruby_system.l2_controllers.DirRequestFromL2Cache.m_msg_count        93396                       # Number of messages passed the buffer (Count)
board.cache_hierarchy.ruby_system.l2_controllers.DirRequestFromL2Cache.m_buf_msgs     0.007652                       # Average number of messages in buffer ((Count/Tick))
board.cache_hierarchy.ruby_system.l2_controllers.L1RequestFromL2Cache.m_msg_count         1612                       # Number of messages passed the buffer (Count)
board.cache_hierarchy.ruby_system.l2_controllers.L1RequestFromL2Cache.m_buf_msgs     0.000066                       # Average number of messages in buffer ((Count/Tick))
board.cache_hierarchy.ruby_system.l2_controllers.L1RequestToL2Cache.m_msg_count       326230                       # Number of messages passed the buffer (Count)
board.cache_hierarchy.ruby_system.l2_controllers.L1RequestToL2Cache.m_buf_msgs     0.013394                       # Average number of messages in buffer ((Count/Tick))
board.cache_hierarchy.ruby_system.l2_controllers.L1RequestToL2Cache.m_stall_time       243756                       # Total number of ticks messages were stalled in this buffer (Tick)
board.cache_hierarchy.ruby_system.l2_controllers.L1RequestToL2Cache.m_stall_count           70                       # Number of times messages were stalled (Count)
board.cache_hierarchy.ruby_system.l2_controllers.L1RequestToL2Cache.m_avg_stall_time     0.747191                       # Average stall ticks per message ((Tick/Count))
board.cache_hierarchy.ruby_system.l2_controllers.L2cache.m_demand_hits        70730                       # Number of cache demand hits (Unspecified)
board.cache_hierarchy.ruby_system.l2_controllers.L2cache.m_demand_misses        93396                       # Number of cache demand misses (Unspecified)
board.cache_hierarchy.ruby_system.l2_controllers.L2cache.m_demand_accesses       164126                       # Number of cache demand accesses (Unspecified)
board.cache_hierarchy.ruby_system.l2_controllers.power_state.pwrStateResidencyTicks::UNDEFINED   8129109087                       # Cumulative time (in ticks) in various power states (Tick)
board.cache_hierarchy.ruby_system.l2_controllers.responseFromL2Cache.m_msg_count       415529                       # Number of messages passed the buffer (Count)
board.cache_hierarchy.ruby_system.l2_controllers.responseFromL2Cache.m_buf_msgs     0.023577                       # Average number of messages in buffer ((Count/Tick))
board.cache_hierarchy.ruby_system.l2_controllers.responseToL2Cache.m_msg_count       184302                       # Number of messages passed the buffer (Count)
board.cache_hierarchy.ruby_system.l2_controllers.responseToL2Cache.m_buf_msgs     0.007550                       # Average number of messages in buffer ((Count/Tick))
board.cache_hierarchy.ruby_system.l2_controllers.unblockToL2Cache.m_msg_count       162567                       # Number of messages passed the buffer (Count)
board.cache_hierarchy.ruby_system.l2_controllers.unblockToL2Cache.m_buf_msgs     0.006659                       # Average number of messages in buffer ((Count/Tick))
board.cache_hierarchy.ruby_system.network.msg_count.Control       515044                       (Unspecified)
board.cache_hierarchy.ruby_system.network.msg_byte.Control      4120352                       (Unspecified)
board.cache_hierarchy.ruby_system.network.msg_count.Request_Control         3216                       (Unspecified)
board.cache_hierarchy.ruby_system.network.msg_byte.Request_Control        25728                       (Unspecified)
board.cache_hierarchy.ruby_system.network.msg_count.Response_Data       595616                       (Unspecified)
board.cache_hierarchy.ruby_system.network.msg_byte.Response_Data     42884352                       (Unspecified)
board.cache_hierarchy.ruby_system.network.msg_count.Response_Control       929004                       (Unspecified)
board.cache_hierarchy.ruby_system.network.msg_byte.Response_Control      7432032                       (Unspecified)
board.cache_hierarchy.ruby_system.network.msg_count.Writeback_Data       116886                       (Unspecified)
board.cache_hierarchy.ruby_system.network.msg_byte.Writeback_Data      8415792                       (Unspecified)
board.cache_hierarchy.ruby_system.network.msg_count.Writeback_Control       207498                       (Unspecified)
board.cache_hierarchy.ruby_system.network.msg_byte.Writeback_Control      1659984                       (Unspecified)
board.cache_hierarchy.ruby_system.network.int_links0.buffers0.m_msg_count       326230                       # Number of messages passed the buffer (Count)
board.cache_hierarchy.ruby_system.network.int_links0.buffers0.m_buf_msgs     0.013364                       # Average number of messages in buffer ((Count/Tick))
board.cache_hierarchy.ruby_system.network.int_links0.buffers1.m_msg_count         1608                       # Number of messages passed the buffer (Count)
board.cache_hierarchy.ruby_system.network.int_links0.buffers1.m_buf_msgs     0.000066                       # Average number of messages in buffer ((Count/Tick))
board.cache_hierarchy.ruby_system.network.int_links0.buffers2.m_msg_count       162567                       # Number of messages passed the buffer (Count)
board.cache_hierarchy.ruby_system.network.int_links0.buffers2.m_buf_msgs     0.006659                       # Average number of messages in buffer ((Count/Tick))
board.cache_hierarchy.ruby_system.network.int_links2.buffers1.m_msg_count       326229                       # Number of messages passed the buffer (Count)
board.cache_hierarchy.ruby_system.network.int_links2.buffers1.m_buf_msgs     0.013364                       # Average number of messages in buffer ((Count/Tick))
board.cache_hierarchy.ruby_system.network.int_links2.buffers2.m_msg_count         1608                       # Number of messages passed the buffer (Count)
board.cache_hierarchy.ruby_system.network.int_links2.buffers2.m_buf_msgs     0.000066                       # Average number of messages in buffer ((Count/Tick))
board.cache_hierarchy.ruby_system.network.int_links3.buffers0.m_msg_count        93396                       # Number of messages passed the buffer (Count)
board.cache_hierarchy.ruby_system.network.int_links3.buffers0.m_buf_msgs     0.003826                       # Average number of messages in buffer ((Count/Tick))
board.cache_hierarchy.ruby_system.network.int_links3.buffers1.m_msg_count        89300                       # Number of messages passed the buffer (Count)
board.cache_hierarchy.ruby_system.network.int_links3.buffers1.m_buf_msgs     0.003658                       # Average number of messages in buffer ((Count/Tick))
board.cache_hierarchy.ruby_system.network.int_links5.buffers1.m_msg_count       182694                       # Number of messages passed the buffer (Count)
board.cache_hierarchy.ruby_system.network.int_links5.buffers1.m_buf_msgs     0.007484                       # Average number of messages in buffer ((Count/Tick))
board.cache_hierarchy.ruby_system.network.power_state.pwrStateResidencyTicks::UNDEFINED   8129109087                       # Cumulative time (in ticks) in various power states (Tick)
board.cache_hierarchy.ruby_system.network.routers0.percent_links_utilized     1.774257                       (Unspecified)
board.cache_hierarchy.ruby_system.network.routers0.msg_count.Control::0       164126                       (Unspecified)
board.cache_hierarchy.ruby_system.network.routers0.msg_bytes.Control::0      1313008                       (Unspecified)
board.cache_hierarchy.ruby_system.network.routers0.msg_count.Request_Control::2         1608                       (Unspecified)
board.cache_hierarchy.ruby_system.network.routers0.msg_bytes.Request_Control::2        12864                       (Unspecified)
board.cache_hierarchy.ruby_system.network.routers0.msg_count.Response_Data::1       164122                       (Unspecified)
board.cache_hierarchy.ruby_system.network.routers0.msg_bytes.Response_Data::1     11816784                       (Unspecified)
board.cache_hierarchy.ruby_system.network.routers0.msg_count.Response_Control::1       163627                       (Unspecified)
board.cache_hierarchy.ruby_system.network.routers0.msg_count.Response_Control::2       162567                       (Unspecified)
board.cache_hierarchy.ruby_system.network.routers0.msg_bytes.Response_Control::1      1309016                       (Unspecified)
board.cache_hierarchy.ruby_system.network.routers0.msg_bytes.Response_Control::2      1300536                       (Unspecified)
board.cache_hierarchy.ruby_system.network.routers0.msg_count.Writeback_Data::0        58355                       (Unspecified)
board.cache_hierarchy.ruby_system.network.routers0.msg_count.Writeback_Data::1           88                       (Unspecified)
board.cache_hierarchy.ruby_system.network.routers0.msg_bytes.Writeback_Data::0      4201560                       (Unspecified)
board.cache_hierarchy.ruby_system.network.routers0.msg_bytes.Writeback_Data::1         6336                       (Unspecified)
board.cache_hierarchy.ruby_system.network.routers0.msg_count.Writeback_Control::0       103749                       (Unspecified)
board.cache_hierarchy.ruby_system.network.routers0.msg_bytes.Writeback_Control::0       829992                       (Unspecified)
board.cache_hierarchy.ruby_system.network.routers0.port_buffers1.m_msg_count       326229                       # Number of messages passed the buffer (Count)
board.cache_hierarchy.ruby_system.network.routers0.port_buffers1.m_buf_msgs     0.013364                       # Average number of messages in buffer ((Count/Tick))
board.cache_hierarchy.ruby_system.network.routers0.port_buffers2.m_msg_count         1608                       # Number of messages passed the buffer (Count)
board.cache_hierarchy.ruby_system.network.routers0.port_buffers2.m_buf_msgs     0.000066                       # Average number of messages in buffer ((Count/Tick))
board.cache_hierarchy.ruby_system.network.routers0.port_buffers3.m_msg_count       326230                       # Number of messages passed the buffer (Count)
board.cache_hierarchy.ruby_system.network.routers0.port_buffers3.m_buf_msgs     0.024148                       # Average number of messages in buffer ((Count/Tick))
board.cache_hierarchy.ruby_system.network.routers0.port_buffers3.m_stall_time     87664581                       # Total number of ticks messages were stalled in this buffer (Tick)
board.cache_hierarchy.ruby_system.network.routers0.port_buffers3.m_avg_stall_time   268.720170                       # Average stall ticks per message ((Tick/Count))
board.cache_hierarchy.ruby_system.network.routers0.port_buffers4.m_msg_count         1608                       # Number of messages passed the buffer (Count)
board.cache_hierarchy.ruby_system.network.routers0.port_buffers4.m_buf_msgs     0.000066                       # Average number of messages in buffer ((Count/Tick))
board.cache_hierarchy.ruby_system.network.routers0.port_buffers5.m_msg_count       162567                       # Number of messages passed the buffer (Count)
board.cache_hierarchy.ruby_system.network.routers0.port_buffers5.m_buf_msgs     0.006661                       # Average number of messages in buffer ((Count/Tick))
board.cache_hierarchy.ruby_system.network.routers0.port_buffers5.m_stall_time        16650                       # Total number of ticks messages were stalled in this buffer (Tick)
board.cache_hierarchy.ruby_system.network.routers0.port_buffers5.m_avg_stall_time     0.102419                       # Average stall ticks per message ((Tick/Count))
board.cache_hierarchy.ruby_system.network.routers0.power_state.pwrStateResidencyTicks::UNDEFINED   8129109087                       # Cumulative time (in ticks) in various power states (Tick)
board.cache_hierarchy.ruby_system.network.routers0.throttle00.acc_link_utilization 820406.500000                       # Accumulated link utilization (Count)
board.cache_hierarchy.ruby_system.network.routers0.throttle00.link_utilization     3.360705                       # Average link utilization (Ratio)
board.cache_hierarchy.ruby_system.network.routers0.throttle00.total_msg_count       327837                       # Total number of messages forwarded by this switch (Count)
board.cache_hierarchy.ruby_system.network.routers0.throttle00.total_msg_bytes     13126504                       # Total number of bytes forwarded by this switch (Byte)
board.cache_hierarchy.ruby_system.network.routers0.throttle00.total_data_msg_bytes     10503808                       # Total number of data bytes forwarded by this switch (Byte)
board.cache_hierarchy.ruby_system.network.routers0.throttle00.total_msg_wait_time            0                       # Total time spend forwarding messages (Tick)
board.cache_hierarchy.ruby_system.network.routers0.throttle00.total_stall_cy            0                       # Total time spent blocked on any output link (Cycle)
board.cache_hierarchy.ruby_system.network.routers0.throttle00.total_bw_sat_cy       656488                       # Total time bandwidth was saturated on any output link (Cycle)
board.cache_hierarchy.ruby_system.network.routers0.throttle00.avg_msg_wait_time            0                       # Average time a message took to be forwarded (Ratio)
board.cache_hierarchy.ruby_system.network.routers0.throttle00.avg_bandwidth         1.50                       # Average bandwidth (GB/s) (Ratio)
board.cache_hierarchy.ruby_system.network.routers0.throttle00.avg_useful_bandwidth         1.20                       # Average usefull (only data) bandwidth (GB/s) (Ratio)
board.cache_hierarchy.ruby_system.network.routers0.throttle00.msg_count.Request_Control::2         1608                       (Unspecified)
board.cache_hierarchy.ruby_system.network.routers0.throttle00.msg_bytes.Request_Control::2        12864                       (Unspecified)
board.cache_hierarchy.ruby_system.network.routers0.throttle00.msg_count.Response_Data::1       164122                       (Unspecified)
board.cache_hierarchy.ruby_system.network.routers0.throttle00.msg_bytes.Response_Data::1     11816784                       (Unspecified)
board.cache_hierarchy.ruby_system.network.routers0.throttle00.msg_count.Response_Control::1       162107                       (Unspecified)
board.cache_hierarchy.ruby_system.network.routers0.throttle00.msg_bytes.Response_Control::1      1296856                       (Unspecified)
board.cache_hierarchy.ruby_system.network.routers0.throttle01.acc_link_utilization 478974.500000                       # Accumulated link utilization (Count)
board.cache_hierarchy.ruby_system.network.routers0.throttle01.link_utilization     1.962066                       # Average link utilization (Ratio)
board.cache_hierarchy.ruby_system.network.routers0.throttle01.total_msg_count       490405                       # Total number of messages forwarded by this switch (Count)
board.cache_hierarchy.ruby_system.network.routers0.throttle01.total_msg_bytes      7663592                       # Total number of bytes forwarded by this switch (Byte)
board.cache_hierarchy.ruby_system.network.routers0.throttle01.total_data_msg_bytes      3740352                       # Total number of data bytes forwarded by this switch (Byte)
board.cache_hierarchy.ruby_system.network.routers0.throttle01.total_msg_wait_time     87681231                       # Total time spend forwarding messages (Tick)
board.cache_hierarchy.ruby_system.network.routers0.throttle01.total_stall_cy            0                       # Total time spent blocked on any output link (Cycle)
board.cache_hierarchy.ruby_system.network.routers0.throttle01.total_bw_sat_cy       243620                       # Total time bandwidth was saturated on any output link (Cycle)
board.cache_hierarchy.ruby_system.network.routers0.throttle01.avg_msg_wait_time   178.793509                       # Average time a message took to be forwarded (Ratio)
board.cache_hierarchy.ruby_system.network.routers0.throttle01.avg_bandwidth         0.88                       # Average bandwidth (GB/s) (Ratio)
board.cache_hierarchy.ruby_system.network.routers0.throttle01.avg_useful_bandwidth         0.43                       # Average usefull (only data) bandwidth (GB/s) (Ratio)
board.cache_hierarchy.ruby_system.network.routers0.throttle01.msg_count.Control::0       164126                       (Unspecified)
board.cache_hierarchy.ruby_system.network.routers0.throttle01.msg_bytes.Control::0      1313008                       (Unspecified)
board.cache_hierarchy.ruby_system.network.routers0.throttle01.msg_count.Response_Control::1         1520                       (Unspecified)
board.cache_hierarchy.ruby_system.network.routers0.throttle01.msg_count.Response_Control::2       162567                       (Unspecified)
board.cache_hierarchy.ruby_system.network.routers0.throttle01.msg_bytes.Response_Control::1        12160                       (Unspecified)
board.cache_hierarchy.ruby_system.network.routers0.throttle01.msg_bytes.Response_Control::2      1300536                       (Unspecified)
board.cache_hierarchy.ruby_system.network.routers0.throttle01.msg_count.Writeback_Data::0        58355                       (Unspecified)
board.cache_hierarchy.ruby_system.network.routers0.throttle01.msg_count.Writeback_Data::1           88                       (Unspecified)
board.cache_hierarchy.ruby_system.network.routers0.throttle01.msg_bytes.Writeback_Data::0      4201560                       (Unspecified)
board.cache_hierarchy.ruby_system.network.routers0.throttle01.msg_bytes.Writeback_Data::1         6336                       (Unspecified)
board.cache_hierarchy.ruby_system.network.routers0.throttle01.msg_count.Writeback_Control::0       103749                       (Unspecified)
board.cache_hierarchy.ruby_system.network.routers0.throttle01.msg_bytes.Writeback_Control::0       829992                       (Unspecified)
board.cache_hierarchy.ruby_system.network.routers0.throttle02.acc_link_utilization            0                       # Accumulated link utilization (Count)
board.cache_hierarchy.ruby_system.network.routers0.throttle02.link_utilization            0                       # Average link utilization (Ratio)
board.cache_hierarchy.ruby_system.network.routers0.throttle02.total_msg_count            0                       # Total number of messages forwarded by this switch (Count)
board.cache_hierarchy.ruby_system.network.routers0.throttle02.total_msg_bytes            0                       # Total number of bytes forwarded by this switch (Byte)
board.cache_hierarchy.ruby_system.network.routers0.throttle02.total_data_msg_bytes            0                       # Total number of data bytes forwarded by this switch (Byte)
board.cache_hierarchy.ruby_system.network.routers0.throttle02.total_msg_wait_time            0                       # Total time spend forwarding messages (Tick)
board.cache_hierarchy.ruby_system.network.routers0.throttle02.total_stall_cy            0                       # Total time spent blocked on any output link (Cycle)
board.cache_hierarchy.ruby_system.network.routers0.throttle02.total_bw_sat_cy            0                       # Total time bandwidth was saturated on any output link (Cycle)
board.cache_hierarchy.ruby_system.network.routers0.throttle02.avg_msg_wait_time          nan                       # Average time a message took to be forwarded (Ratio)
board.cache_hierarchy.ruby_system.network.routers0.throttle02.avg_bandwidth         0.00                       # Average bandwidth (GB/s) (Ratio)
board.cache_hierarchy.ruby_system.network.routers0.throttle02.avg_useful_bandwidth         0.00                       # Average usefull (only data) bandwidth (GB/s) (Ratio)
board.cache_hierarchy.ruby_system.network.routers1.percent_links_utilized     2.753894                       (Unspecified)
board.cache_hierarchy.ruby_system.network.routers1.msg_count.Control::0       257522                       (Unspecified)
board.cache_hierarchy.ruby_system.network.routers1.msg_bytes.Control::0      2060176                       (Unspecified)
board.cache_hierarchy.ruby_system.network.routers1.msg_count.Request_Control::2         1608                       (Unspecified)
board.cache_hierarchy.ruby_system.network.routers1.msg_bytes.Request_Control::2        12864                       (Unspecified)
board.cache_hierarchy.ruby_system.network.routers1.msg_count.Response_Data::1       297808                       (Unspecified)
board.cache_hierarchy.ruby_system.network.routers1.msg_bytes.Response_Data::1     21442176                       (Unspecified)
board.cache_hierarchy.ruby_system.network.routers1.msg_count.Response_Control::1       301935                       (Unspecified)
board.cache_hierarchy.ruby_system.network.routers1.msg_count.Response_Control::2       162567                       (Unspecified)
board.cache_hierarchy.ruby_system.network.routers1.msg_bytes.Response_Control::1      2415480                       (Unspecified)
board.cache_hierarchy.ruby_system.network.routers1.msg_bytes.Response_Control::2      1300536                       (Unspecified)
board.cache_hierarchy.ruby_system.network.routers1.msg_count.Writeback_Data::0        58355                       (Unspecified)
board.cache_hierarchy.ruby_system.network.routers1.msg_count.Writeback_Data::1           88                       (Unspecified)
board.cache_hierarchy.ruby_system.network.routers1.msg_bytes.Writeback_Data::0      4201560                       (Unspecified)
board.cache_hierarchy.ruby_system.network.routers1.msg_bytes.Writeback_Data::1         6336                       (Unspecified)
board.cache_hierarchy.ruby_system.network.routers1.msg_count.Writeback_Control::0       103749                       (Unspecified)
board.cache_hierarchy.ruby_system.network.routers1.msg_bytes.Writeback_Control::0       829992                       (Unspecified)
board.cache_hierarchy.ruby_system.network.routers1.port_buffers0.m_msg_count       326230                       # Number of messages passed the buffer (Count)
board.cache_hierarchy.ruby_system.network.routers1.port_buffers0.m_buf_msgs     0.014696                       # Average number of messages in buffer ((Count/Tick))
board.cache_hierarchy.ruby_system.network.routers1.port_buffers0.m_stall_time     10831824                       # Total number of ticks messages were stalled in this buffer (Tick)
board.cache_hierarchy.ruby_system.network.routers1.port_buffers0.m_avg_stall_time    33.203029                       # Average stall ticks per message ((Tick/Count))
board.cache_hierarchy.ruby_system.network.routers1.port_buffers1.m_msg_count       184302                       # Number of messages passed the buffer (Count)
board.cache_hierarchy.ruby_system.network.routers1.port_buffers1.m_buf_msgs     0.007551                       # Average number of messages in buffer ((Count/Tick))
board.cache_hierarchy.ruby_system.network.routers1.port_buffers1.m_stall_time         7992                       # Total number of ticks messages were stalled in this buffer (Tick)
board.cache_hierarchy.ruby_system.network.routers1.port_buffers1.m_avg_stall_time     0.043364                       # Average stall ticks per message ((Tick/Count))
board.cache_hierarchy.ruby_system.network.routers1.port_buffers2.m_msg_count       162567                       # Number of messages passed the buffer (Count)
board.cache_hierarchy.ruby_system.network.routers1.port_buffers2.m_buf_msgs     0.006660                       # Average number of messages in buffer ((Count/Tick))
board.cache_hierarchy.ruby_system.network.routers1.port_buffers2.m_stall_time         5328                       # Total number of ticks messages were stalled in this buffer (Tick)
board.cache_hierarchy.ruby_system.network.routers1.port_buffers2.m_avg_stall_time     0.032774                       # Average stall ticks per message ((Tick/Count))
board.cache_hierarchy.ruby_system.network.routers1.port_buffers4.m_msg_count       326229                       # Number of messages passed the buffer (Count)
board.cache_hierarchy.ruby_system.network.routers1.port_buffers4.m_buf_msgs     0.014235                       # Average number of messages in buffer ((Count/Tick))
board.cache_hierarchy.ruby_system.network.routers1.port_buffers4.m_stall_time      7087572                       # Total number of ticks messages were stalled in this buffer (Tick)
[...]
board.processor.cores.core.fetch.predictedBranches      2578734                       # Number of branches that fetch has predicted taken (Count)
board.processor.cores.core.fetch.cycles      18635113                       # Number of cycles fetch has run and was not squashing or blocked (Cycle)
board.processor.cores.core.fetch.squashCycles       312626                       # Number of cycles fetch has spent squashing (Cycle)
board.processor.cores.core.fetch.miscStallCycles          504                       # Number of cycles fetch has spent waiting on interrupts, or bad addresses, or out of MSHRs (Cycle)
board.processor.cores.core.fetch.pendingTrapStallCycles         1538                       # Number of stall cycles due to pending traps (Cycle)
board.processor.cores.core.fetch.icacheWaitRetryStallCycles       136842                       # Number of stall cycles due to full MSHR (Cycle)
board.processor.cores.core.fetch.cacheLines      3626593                       # Number of cache lines fetched (Count)
board.processor.cores.core.fetch.icacheSquashes        20137                       # Number of outstanding Icache misses that were squashed (Count)
board.processor.cores.core.fetch.nisnDist::samples     22763139                       # Number of instructions fetched each cycle (Total) (Count)
board.processor.cores.core.fetch.nisnDist::mean     1.845993                       # Number of instructions fetched each cycle (Total) (Count)
board.processor.cores.core.fetch.nisnDist::stdev     1.898756                       # Number of instructions fetched each cycle (Total) (Count)
board.processor.cores.core.fetch.nisnDist::underflows            0      0.00%      0.00% # Number of instructions fetched each cycle (Total) (Count)
board.processor.cores.core.fetch.nisnDist::0     11001147     48.33%     48.33% # Number of instructions fetched each cycle (Total) (Count)
board.processor.cores.core.fetch.nisnDist::1       765440      3.36%     51.69% # Number of instructions fetched each cycle (Total) (Count)
board.processor.cores.core.fetch.nisnDist::2      1022108      4.49%     56.18% # Number of instructions fetched each cycle (Total) (Count)
board.processor.cores.core.fetch.nisnDist::3       686838      3.02%     59.20% # Number of instructions fetched each cycle (Total) (Count)
board.processor.cores.core.fetch.nisnDist::4      9287606     40.80%    100.00% # Number of instructions fetched each cycle (Total) (Count)
board.processor.cores.core.fetch.nisnDist::overflows            0      0.00%    100.00% # Number of instructions fetched each cycle (Total) (Count)
board.processor.cores.core.fetch.nisnDist::min_value            0                       # Number of instructions fetched each cycle (Total) (Count)
board.processor.cores.core.fetch.nisnDist::max_value            4                       # Number of instructions fetched each cycle (Total) (Count)
board.processor.cores.core.fetch.nisnDist::total     22763139                       # Number of instructions fetched each cycle (Total) (Count)
board.processor.cores.core.fetchStats0.numInsts     20439286                       # Number of instructions fetched (thread level) (Count)
board.processor.cores.core.fetchStats0.numOps            0                       # Number of ops (including micro ops) fetched (thread level) (Count)
board.processor.cores.core.fetchStats0.fetchRate     0.837273                       # Number of inst fetches per cycle ((Count/Cycle))
board.processor.cores.core.fetchStats0.numBranches      4156863                       # Number of branches fetched (Count)
board.processor.cores.core.fetchStats0.branchRate     0.170281                       # Number of branch fetches per cycle (Ratio)
board.processor.cores.core.fetchStats0.icacheStallCycles      3832829                       # ICache total stall cycles (Cycle)
board.processor.cores.core.fetchStats0.numFetchSuspends            0                       # Number of times Execute suspended instruction fetching (Count)
board.processor.cores.core.iew.idleCycles            0                       # Number of cycles IEW is idle (Cycle)
board.processor.cores.core.iew.squashCycles       113984                       # Number of cycles IEW is squashing (Cycle)
board.processor.cores.core.iew.blockCycles       518694                       # Number of cycles IEW is blocking (Cycle)
board.processor.cores.core.iew.unblockCycles        91388                       # Number of cycles IEW is unblocking (Cycle)
board.processor.cores.core.iew.dispatchedInsts     39897039                       # Number of instructions dispatched to IQ (Count)
board.processor.cores.core.iew.dispSquashedInsts        47890                       # Number of squashed instructions skipped by dispatch (Count)
board.processor.cores.core.iew.dispLoadInsts      5524146                       # Number of dispatched load instructions (Count)
board.processor.cores.core.iew.dispStoreInsts      2795496                       # Number of dispatched store instructions (Count)
board.processor.cores.core.iew.dispNonSpecInsts           92                       # Number of dispatched non-speculative instructions (Count)
board.processor.cores.core.iew.iqFullEvents            0                       # Number of times the IQ has become full, causing a stall (Count)
board.processor.cores.core.iew.lsqFullEvents        91304                       # Number of times the LSQ has become full, causing a stall (Count)
board.processor.cores.core.iew.memOrderViolationEvents           78                       # Number of memory order violations (Count)
board.processor.cores.core.iew.predictedTakenIncorrect        48613                       # Number of branches that were predicted taken incorrectly (Count)
board.processor.cores.core.iew.predictedNotTakenIncorrect        66192                       # Number of branches that were predicted not taken incorrectly (Count)
board.processor.cores.core.iew.branchMispredicts       114805                       # Number of branch mispredicts detected at execute (Count)
board.processor.cores.core.iew.instsToCommit     38542318                       # Cumulative count of insts sent to commit (Count)
board.processor.cores.core.iew.writebackCount     38480888                       # Cumulative count of insts written-back (Count)
board.processor.cores.core.iew.producerInst     27077615                       # Number of instructions producing a value (Count)
board.processor.cores.core.iew.consumerInst     48886908                       # Number of instructions consuming a value (Count)
board.processor.cores.core.iew.wbRate        1.576327                       # Insts written-back per cycle ((Count/Cycle))
board.processor.cores.core.iew.wbFanout      0.553883                       # Average fanout of values written-back ((Count/Count))
board.processor.cores.core.interrupts.clk_domain.clock         5328                       # Clock period in ticks (Tick)
board.processor.cores.core.lsq0.forwLoads       585186                       # Number of loads that had data forwarded from stores (Count)
board.processor.cores.core.lsq0.squashedLoads       742612                       # Number of loads squashed (Count)
board.processor.cores.core.lsq0.ignoredResponses         1036                       # Number of memory responses ignored because the instruction is squashed (Count)
board.processor.cores.core.lsq0.memOrderViolation           78                       # Number of memory ordering violations (Count)
board.processor.cores.core.lsq0.squashedStores       299645                       # Number of stores squashed (Count)
board.processor.cores.core.lsq0.rescheduledLoads         9207                       # Number of loads that were rescheduled (Count)
board.processor.cores.core.lsq0.blockedByCache        12585                       # Number of times an access to memory failed due to the cache being blocked (Count)
board.processor.cores.core.lsq0.loadToUse::samples      4781534                       # Distribution of cycle latency between the first time a load is issued and its completion (Unspecified)
board.processor.cores.core.lsq0.loadToUse::mean    17.607095                       # Distribution of cycle latency between the first time a load is issued and its completion (Unspecified)
board.processor.cores.core.lsq0.loadToUse::stdev    61.389504                       # Distribution of cycle latency between the first time a load is issued and its completion (Unspecified)
board.processor.cores.core.lsq0.loadToUse::0-9      4334883     90.66%     90.66% # Distribution of cycle latency between the first time a load is issued and its completion (Unspecified)
board.processor.cores.core.lsq0.loadToUse::10-19        92415      1.93%     92.59% # Distribution of cycle latency between the first time a load is issued and its completion (Unspecified)
board.processor.cores.core.lsq0.loadToUse::20-29         6908      0.14%     92.74% # Distribution of cycle latency between the first time a load is issued and its completion (Unspecified)
board.processor.cores.core.lsq0.loadToUse::30-39         1608      0.03%     92.77% # Distribution of cycle latency between the first time a load is issued and its completion (Unspecified)
board.processor.cores.core.lsq0.loadToUse::40-49         2319      0.05%     92.82% # Distribution of cycle latency between the first time a load is issued and its completion (Unspecified)
board.processor.cores.core.lsq0.loadToUse::50-59         4093      0.09%     92.90% # Distribution of cycle latency between the first time a load is issued and its completion (Unspecified)
board.processor.cores.core.lsq0.loadToUse::60-69         1629      0.03%     92.94% # Distribution of cycle latency between the first time a load is issued and its completion (Unspecified)
board.processor.cores.core.lsq0.loadToUse::70-79          351      0.01%     92.95% # Distribution of cycle latency between the first time a load is issued and its completion (Unspecified)
board.processor.cores.core.lsq0.loadToUse::80-89          404      0.01%     92.95% # Distribution of cycle latency between the first time a load is issued and its completion (Unspecified)
board.processor.cores.core.lsq0.loadToUse::90-99         1487      0.03%     92.98% # Distribution of cycle latency between the first time a load is issued and its completion (Unspecified)
board.processor.cores.core.lsq0.loadToUse::100-109         3328      0.07%     93.05% # Distribution of cycle latency between the first time a load is issued and its completion (Unspecified)
board.processor.cores.core.lsq0.loadToUse::110-119         2366      0.05%     93.10% # Distribution of cycle latency between the first time a load is issued and its completion (Unspecified)
board.processor.cores.core.lsq0.loadToUse::120-129         4548      0.10%     93.20% # Distribution of cycle latency between the first time a load is issued and its completion (Unspecified)
board.processor.cores.core.lsq0.loadToUse::130-139        18841      0.39%     93.59% # Distribution of cycle latency between the first time a load is issued and its completion (Unspecified)
board.processor.cores.core.lsq0.loadToUse::140-149        52449      1.10%     94.69% # Distribution of cycle latency between the first time a load is issued and its completion (Unspecified)
board.processor.cores.core.lsq0.loadToUse::150-159        20973      0.44%     95.13% # Distribution of cycle latency between the first time a load is issued and its completion (Unspecified)
board.processor.cores.core.lsq0.loadToUse::160-169        13862      0.29%     95.42% # Distribution of cycle latency between the first time a load is issued and its completion (Unspecified)
board.processor.cores.core.lsq0.loadToUse::170-179        20419      0.43%     95.85% # Distribution of cycle latency between the first time a load is issued and its completion (Unspecified)
board.processor.cores.core.lsq0.loadToUse::180-189        33591      0.70%     96.55% # Distribution of cycle latency between the first time a load is issued and its completion (Unspecified)
board.processor.cores.core.lsq0.loadToUse::190-199        31761      0.66%     97.21% # Distribution of cycle latency between the first time a load is issued and its completion (Unspecified)
board.processor.cores.core.lsq0.loadToUse::200-209        15163      0.32%     97.53% # Distribution of cycle latency between the first time a load is issued and its completion (Unspecified)
board.processor.cores.core.lsq0.loadToUse::210-219        25553      0.53%     98.06% # Distribution of cycle latency between the first time a load is issued and its completion (Unspecified)
board.processor.cores.core.lsq0.loadToUse::220-229        40610      0.85%     98.91% # Distribution of cycle latency between the first time a load is issued and its completion (Unspecified)
board.processor.cores.core.lsq0.loadToUse::230-239        22044      0.46%     99.37% # Distribution of cycle latency between the first time a load is issued and its completion (Unspecified)
board.processor.cores.core.lsq0.loadToUse::240-249         3181      0.07%     99.44% # Distribution of cycle latency between the first time a load is issued and its completion (Unspecified)
board.processor.cores.core.lsq0.loadToUse::250-259          262      0.01%     99.45% # Distribution of cycle latency between the first time a load is issued and its completion (Unspecified)
board.processor.cores.core.lsq0.loadToUse::260-269          383      0.01%     99.45% # Distribution of cycle latency between the first time a load is issued and its completion (Unspecified)
board.processor.cores.core.lsq0.loadToUse::270-279          566      0.01%     99.47% # Distribution of cycle latency between the first time a load is issued and its completion (Unspecified)
board.processor.cores.core.lsq0.loadToUse::280-289          555      0.01%     99.48% # Distribution of cycle latency between the first time a load is issued and its completion (Unspecified)
board.processor.cores.core.lsq0.loadToUse::290-299          714      0.01%     99.49% # Distribution of cycle latency between the first time a load is issued and its completion (Unspecified)
board.processor.cores.core.lsq0.loadToUse::overflows        24268      0.51%    100.00% # Distribution of cycle latency between the first time a load is issued and its completion (Unspecified)
board.processor.cores.core.lsq0.loadToUse::min_value            2                       # Distribution of cycle latency between the first time a load is issued and its completion (Unspecified)
board.processor.cores.core.lsq0.loadToUse::max_value         1741                       # Distribution of cycle latency between the first time a load is issued and its completion (Unspecified)
board.processor.cores.core.lsq0.loadToUse::total      4781534                       # Distribution of cycle latency between the first time a load is issued and its completion (Unspecified)
board.processor.cores.core.mmu.dtb.rdAccesses      5372888                       # TLB accesses on read requests (Count)
board.processor.cores.core.mmu.dtb.wrAccesses      2683706                       # TLB accesses on write requests (Count)
board.processor.cores.core.mmu.dtb.rdMisses        55310                       # TLB misses on read requests (Count)
board.processor.cores.core.mmu.dtb.wrMisses         1064                       # TLB misses on write requests (Count)
board.processor.cores.core.mmu.dtb.walker.power_state.pwrStateResidencyTicks::UNDEFINED   8129109087                       # Cumulative time (in ticks) in various power states (Tick)
board.processor.cores.core.mmu.itb.rdAccesses            0                       # TLB accesses on read requests (Count)
board.processor.cores.core.mmu.itb.wrAccesses      3626856                       # TLB accesses on write requests (Count)
board.processor.cores.core.mmu.itb.rdMisses            0                       # TLB misses on read requests (Count)
board.processor.cores.core.mmu.itb.wrMisses          354                       # TLB misses on write requests (Count)
board.processor.cores.core.mmu.itb.walker.power_state.pwrStateResidencyTicks::UNDEFINED   8129109087                       # Cumulative time (in ticks) in various power states (Tick)
board.processor.cores.core.power_state.pwrStateResidencyTicks::ON   8129109087                       # Cumulative time (in ticks) in various power states (Tick)
board.processor.cores.core.rename.squashCycles       113984                       # Number of cycles rename is squashing (Cycle)
board.processor.cores.core.rename.idleCycles      4107006                       # Number of cycles rename is idle (Cycle)
board.processor.cores.core.rename.blockCycles      7279597                       # Number of cycles rename is blocking (Cycle)
board.processor.cores.core.rename.serializeStallCycles         1341                       # count of cycles rename stalled for serializing inst (Cycle)
board.processor.cores.core.rename.runCycles     10251075                       # Number of cycles rename is running (Cycle)
board.processor.cores.core.rename.unblockCycles      1010136                       # Number of cycles rename is unblocking (Cycle)
board.processor.cores.core.rename.renamedInsts     40417292                       # Number of instructions processed by rename (Count)
board.processor.cores.core.rename.ROBFullEvents       498533                       # Number of times rename has blocked due to ROB full (Count)
board.processor.cores.core.rename.SQFullEvents       379114                       # Number of times rename has blocked due to SQ full (Count)
board.processor.cores.core.rename.renamedOperands     64041753                       # Number of destination operands rename has renamed (Count)
board.processor.cores.core.rename.lookups    135557427                       # Number of register rename lookups that rename has made (Count)
board.processor.cores.core.rename.intLookups     51385710                       # Number of integer rename lookups (Count)
board.processor.cores.core.rename.fpLookups      4531262                       # Number of floating rename lookups (Count)
board.processor.cores.core.rename.committedMaps     55271980                       # Number of HB maps that are committed (Count)
board.processor.cores.core.rename.undoneMaps      8769773                       # Number of HB maps that are undone due to squashing (Count)
board.processor.cores.core.rename.serializing           46                       # count of serializing insts renamed (Count)
board.processor.cores.core.rename.tempSerializing           45                       # count of temporary serializing insts renamed (Count)
board.processor.cores.core.rename.skidInsts      1814493                       # count of insts added to the skid buffer (Count)
board.processor.cores.core.rob.reads         60089695                       # The number of ROB reads (Count)
board.processor.cores.core.rob.writes        79788379                       # The number of ROB writes (Count)
board.processor.cores.core.thread_0.numInsts     16896977                       # Number of Instructions committed (Count)
board.processor.cores.core.thread_0.numOps     34971726                       # Number of Ops committed (Count)
board.processor.cores.core.thread_0.numMemRefs            0                       # Number of Memory References (Count)
board.processor.cores.core.workload.numSyscalls        10030                       # Number of system calls (Count)
board.workload.inst.arm                             0                       # number of arm instructions executed (Count)
board.workload.inst.quiesce                         0                       # number of quiesce instructions executed (Count)

---------- End Simulation Statistics   ----------
